
$ None
SOL 106
DIAG 8
TIME 10000
CEND
$
TITLE=Vega Exported Model
LABEL=STIFFNESS
SUBCASE 1
    LOAD=1
    SPC=1
    NLPARM=42

BEGIN BULK
NLPARM*               42               1

$---1--][---2--][---3--][---4--][---5--][---6--][---7--][---8--][---9--][--10--]

GRID*                  1                             0.0            -2.5+
+                    0.0
GRID*                  2                            10.0            -2.5+
+                    0.0
GRID*                  3                            10.0             2.5+
+                    0.0
GRID*                  4                             0.0             2.5+
+                    0.0
GRID*                  5                             1.0            -2.5+
+                    0.0
GRID*                  6                             2.0            -2.5+
+                    0.0
GRID*                  7                             3.0            -2.5+
+                    0.0
GRID*                  8                             4.0            -2.5+
+                    0.0
GRID*                  9                             5.0            -2.5+
+                    0.0
GRID*                 10                             6.0            -2.5+
+                    0.0
GRID*                 11                             7.0            -2.5+
+                    0.0
GRID*                 12                             8.0            -2.5+
+                    0.0
GRID*                 13                             9.0            -2.5+
+                    0.0
GRID*                 14                            10.0            -2.0+
+                    0.0
GRID*                 15                            10.0            -1.5+
+                    0.0
GRID*                 16                            10.0            -1.0+
+                    0.0
GRID*                 17                            10.0            -0.5+
+                    0.0
GRID*                 18                            10.0             0.0+
+                    0.0
GRID*                 19                            10.0             0.5+
+                    0.0
GRID*                 20                            10.0             1.0+
+                    0.0
$ ... 444 like lines cut

$---1--][---2--][---3--][---4--][---5--][---6--][---7--][---8--][---9--][--10--]

CQUAD4*                1               1               1               5+
+                     41              40
CQUAD4*                2               1               5               6+
+                     42              41
CQUAD4*                3               1               6               7+
+                     43              42
CQUAD4*                4               1               7               8+
+                     44              43
CQUAD4*                5               1               8               9+
+                     45              44
CQUAD4*                6               1               9              10+
+                     46              45
CQUAD4*                7               1              10              11+
+                     47              46
CQUAD4*                8               1              11              12+
+                     48              47
CQUAD4*                9               1              12              13+
+                     49              48
CQUAD4*               10               1              13               2+
+                     14              49
CQUAD4*               11               1              40              41+
+                     50              39
CQUAD4*               12               1              41              42+
+                     51              50
CQUAD4*               13               1              42              43+
+                     52              51
CQUAD4*               14               1              43              44+
+                     53              52
CQUAD4*               15               1              44              45+
+                     54              53
CQUAD4*               16               1              45              46+
+                     55              54
CQUAD4*               17               1              46              47+
+                     56              55
CQUAD4*               18               1              47              48+
+                     57              56
CQUAD4*               19               1              48              49+
+                     58              57
CQUAD4*               20               1              49              14+
+                     15              58
$ ... 360 like lines cut

$---1--][---2--][---3--][---4--][---5--][---6--][---7--][---8--][---9--][--10--]


BSCONP*                2               4               5
BSSEG*                 4             123             126             162+
+                    143             126             127             163+
+                    162             127             128             164+
+                    163             128             129             165+
+                    164             129             130             166+
+                    165             130             131             167+
+                    166             131             132             168+
+                    167             132             133             169+
+                    168             133             134             170+
+                    169             134             122             153+
+                    170             143             162             171+
+                    142             162             163             172+
+                    171             163             164             173+
+                    172             164             165             174+
+                    173             165             166             175+
+                    174             166             167             176+
+                    175             167             168             177+
+                    176             168             169             178+
+                    177             169             170             179+
+                    178             170             153             154+
+                    179             142             171             180+
$ ... 79 like lines cut
+                    144
BSSEG*                 5               1               5              41+
+                     40               5               6              42+
+                     41               6               7              43+
+                     42               7               8              44+
+                     43               8               9              45+
+                     44               9              10              46+
+                     45              10              11              47+
+                     46              11              12              48+
+                     47              12              13              49+
+                     48              13               2              14+
+                     49              40              41              50+
+                     39              41              42              51+
+                     50              42              43              52+
+                     51              43              44              53+
+                     52              44              45              54+
+                     53              45              46              55+
+                     54              46              47              56+
+                     55              47              48              57+
+                     56              48              49              58+
+                     57              49              14              15+
+                     58              39              50              59+
$ ... 79 like lines cut
+                     23

$---1--][---2--][---3--][---4--][---5--][---6--][---7--][---8--][---9--][--10--]
SPC1*                  1          123456              33
SPC1*                  1          123456              32
SPC1*                  1          123456               1
SPC1*                  1          123456              39
SPC1*                  1          123456              38
SPC1*                  1          123456              37
SPC1*                  1          123456              40
SPC1*                  1          123456              36
SPC1*                  1          123456               4
SPC1*                  1          123456              35
SPC1*                  1          123456              34

$---1--][---2--][---3--][---4--][---5--][---6--][---7--][---8--][---9--][--10--]



PLOAD4*                1             101    -250000000.0
PLOAD4*                1             102    -250000000.0
PLOAD4*                1             103    -250000000.0
PLOAD4*                1             104    -250000000.0
PLOAD4*                1             105    -250000000.0
PLOAD4*                1             106    -250000000.0
PLOAD4*                1             107    -250000000.0
PLOAD4*                1             108    -250000000.0
PLOAD4*                1             109    -250000000.0
PLOAD4*                1             110    -250000000.0
PLOAD4*                1             111    -250000000.0
PLOAD4*                1             112    -250000000.0
PLOAD4*                1             113    -250000000.0
PLOAD4*                1             114    -250000000.0
PLOAD4*                1             115    -250000000.0
PLOAD4*                1             116    -250000000.0
PLOAD4*                1             117    -250000000.0
PLOAD4*                1             118    -250000000.0
PLOAD4*                1             119    -250000000.0
PLOAD4*                1             120    -250000000.0
$ ... 80 like lines cut

$---1--][---2--][---3--][---4--][---5--][---6--][---7--][---8--][---9--][--10--]

MAT1*                  1           2e+11                             0.3+
+

$---1--][---2--][---3--][---4--][---5--][---6--][---7--][---8--][---9--][--10--]

PSHELL*                1               1             0.5
PSHELL*                2               1             0.5

ENDDATA
