SOL 106
DIAG 8
TIME 10000
CEND
$
TITLE=Vega Exported Model

SUBCASE 1

LOAD=1
SPC=1
NLPARM=42
BCONTACT=2


BEGIN BULK

$---1--][---2--][---3--][---4--][---5--][---6--][---7--][---8--][---9--][--10--]
NLPARM        42       1

$---1--][---2--][---3--][---4--][---5--][---6--][---7--][---8--][---9--][--10--]

GRID           1             0.0    -2.5     0.0
GRID           2            10.0    -2.5     0.0
GRID           3            10.0     2.5     0.0
GRID           4             0.0     2.5     0.0
GRID           5             1.0    -2.5     0.0
GRID           6             2.0    -2.5     0.0
GRID           7             3.0    -2.5     0.0
GRID           8             4.0    -2.5     0.0
GRID           9             5.0    -2.5     0.0
GRID          10             6.0    -2.5     0.0
GRID          11             7.0    -2.5     0.0
GRID          12             8.0    -2.5     0.0
GRID          13             9.0    -2.5     0.0
GRID          14            10.0    -2.0     0.0
GRID          15            10.0    -1.5     0.0
GRID          16            10.0    -1.0     0.0
GRID          17            10.0    -0.5     0.0
GRID          18            10.0     0.0     0.0
GRID          19            10.0     0.5     0.0
GRID          20            10.0     1.0     0.0
$ ... 222 like lines cut

$---1--][---2--][---3--][---4--][---5--][---6--][---7--][---8--][---9--][--10--]

CQUAD4         1       1       1       5      41      40
CQUAD4         2       1       5       6      42      41
CQUAD4         3       1       6       7      43      42
CQUAD4         4       1       7       8      44      43
CQUAD4         5       1       8       9      45      44
CQUAD4         6       1       9      10      46      45
CQUAD4         7       1      10      11      47      46
CQUAD4         8       1      11      12      48      47
CQUAD4         9       1      12      13      49      48
CQUAD4        10       1      13       2      14      49
CQUAD4        11       1      40      41      50      39
CQUAD4        12       1      41      42      51      50
CQUAD4        13       1      42      43      52      51
CQUAD4        14       1      43      44      53      52
CQUAD4        15       1      44      45      54      53
CQUAD4        16       1      45      46      55      54
CQUAD4        17       1      46      47      56      55
CQUAD4        18       1      47      48      57      56
CQUAD4        19       1      48      49      58      57
CQUAD4        20       1      49      14      15      58
$ ... 180 like lines cut

$---1--][---2--][---3--][---4--][---5--][---6--][---7--][---8--][---9--][--10--]


BCTABLE        2       6       7
BCBODY         6                       4
BSURF          4     112     113     114     115     116     117     118+
+            119     122     123     124     125     126     127     128+
+            129     132     133     134     135     136     137     138+
+            139     142     143     144     147     148     149     152+
+            153     154     157     158     159     162     163     164+
+            165     166     167     168     169     172     173     174+
+            175     176     177     178     179     182     183     184+
+            185     186     187     188     189
BCBODY         7                       5
BSURF          5      12      13      14      15      16      17      18+
+             19      22      23      24      25      26      27      28+
+             29      32      33      34      35      36      37      38+
+             39      42      43      44      47      48      49      52+
+             53      54      57      58      59      62      63      64+
+             65      66      67      68      69      72      73      74+
+             75      76      77      78      79      82      83      84+
+             85      86      87      88      89


SPC1           1   12456      81

SPC1           1   12456     202

SPC1           1     235      13
SPC1           1     235      12
SPC1           1     235       2
SPC1           1     235       1
SPC1           1     235       9
SPC1           1     235       8
SPC1           1     235       7
SPC1           1     235       6
SPC1           1     235      11
SPC1           1     235       5
SPC1           1     235      10
SPC1           1     235     134
SPC1           1     235     126
SPC1           1     235     128
SPC1           1     235     127
SPC1           1     235     129
SPC1           1     235     131
SPC1           1     235     130
SPC1           1     235     133
SPC1           1     235     132
SPC1           1     235     122
SPC1           1     235     123

SPC1           1     134     139
SPC1           1     134     137
SPC1           1     134     138
SPC1           1     134     136
SPC1           1     134     124
SPC1           1     134     143
SPC1           1     134     140
SPC1           1     134     142
SPC1           1     134     123
SPC1           1     134     135
SPC1           1     134     141
SPC1           1     134       3
SPC1           1     134       2
SPC1           1     134      22
SPC1           1     134      20
SPC1           1     134      15
SPC1           1     134      14
SPC1           1     134      19
SPC1           1     134      17
SPC1           1     134      18
SPC1           1     134      16
SPC1           1     134      21

SPC1           1     235     150
SPC1           1     235     152
SPC1           1     235     124
SPC1           1     235     148
SPC1           1     235     125
SPC1           1     235     149
SPC1           1     235     151
SPC1           1     235     144
SPC1           1     235     145
SPC1           1     235     146
SPC1           1     235     147
SPC1           1     235       3
SPC1           1     235      30
SPC1           1     235      31
SPC1           1     235      28
SPC1           1     235      23
SPC1           1     235      29
SPC1           1     235      24
SPC1           1     235      25
SPC1           1     235      27
SPC1           1     235      26
SPC1           1     235       4

SPC1           1     134     160
SPC1           1     134     153
SPC1           1     134     161
SPC1           1     134     157
SPC1           1     134     125
SPC1           1     134     159
SPC1           1     134     158
SPC1           1     134     122
SPC1           1     134     156
SPC1           1     134     155
SPC1           1     134     154
SPC1           1     134      33
SPC1           1     134      32
SPC1           1     134       1
SPC1           1     134      39
SPC1           1     134      38
SPC1           1     134      37
SPC1           1     134      40
SPC1           1     134      36
SPC1           1     134       4
SPC1           1     134      35
SPC1           1     134      34

$---1--][---2--][---3--][---4--][---5--][---6--][---7--][---8--][---9--][--10--]



PLOAD4         1     101-2.5e+08
PLOAD4         1     102-2.5e+08
PLOAD4         1     103-2.5e+08
PLOAD4         1     104-2.5e+08
PLOAD4         1     105-2.5e+08
PLOAD4         1     106-2.5e+08
PLOAD4         1     107-2.5e+08
PLOAD4         1     108-2.5e+08
PLOAD4         1     109-2.5e+08
PLOAD4         1     110-2.5e+08
PLOAD4         1     111-2.5e+08
PLOAD4         1     112-2.5e+08
PLOAD4         1     113-2.5e+08
PLOAD4         1     114-2.5e+08
PLOAD4         1     115-2.5e+08
PLOAD4         1     116-2.5e+08
PLOAD4         1     117-2.5e+08
PLOAD4         1     118-2.5e+08
PLOAD4         1     119-2.5e+08
PLOAD4         1     120-2.5e+08
$ ... 80 like lines cut

$---1--][---2--][---3--][---4--][---5--][---6--][---7--][---8--][---9--][--10--]

MAT1           1   2e+11             0.3

$---1--][---2--][---3--][---4--][---5--][---6--][---7--][---8--][---9--][--10--]

PSHELL         1       1     .5
PSHELL         2       1     .5

ENDDATA
