ID SEMINAR,PROB2
TIME 5
SOL 101
CEND
TITLE = GARAGE ROOF FRAME
SUBTITLE = WOOD AND STEEL MEMBERS
SPC = 1
DISP = ALL
$FORCE = ALL
$STRESS = ALL
$SPCFORCE = ALL
SUBCASE 1
   LABEL = GRAVITY LOAD
   LOAD = 1
$SUBCASE 2
$   LABEL = TEMPERATURE LOAD
$   TEMP(LOAD) = 2
$SUBCASE 3
$   LABEL = SNOW AND CONCENTRATED LOAD
$   LOAD = 3
BEGIN BULK
$---1--][---2--][---3--][---4--][---5--][---6--][---7--][---8--][---9--][--10--]
GRDSET                                                  345
GRID           1             0.0     0.0     0.0
GRID           2           192.0     0.0     0.0
GRID           3           384.0     0.0     0.0
GRID           4           576.0     0.0     0.0
GRID           5           432.0    72.0     0.0
GRID           6           288.0   144.0     0.0
GRID           7           144.0    72.0     0.0
GRID           8          14.769     0.0     0.0
GRID           9          29.538     0.0     0.0
GRID          10          44.308     0.0     0.0
GRID          11          59.077     0.0     0.0
GRID          12          73.846     0.0     0.0
GRID          13          88.615     0.0     0.0
GRID          14          103.38     0.0     0.0
GRID          15          118.15     0.0     0.0
GRID          16          132.92     0.0     0.0
GRID          17          147.69     0.0     0.0
GRID          18          162.46     0.0     0.0
GRID          19          177.23     0.0     0.0
GRID          20          206.77     0.0     0.0
$ ... 63 like lines cut

CBAR           1       2       1       8     0.0     1.0     0.0
CBAR           2       2       8       9     0.0     1.0     0.0
CBAR           3       2       9      10     0.0     1.0     0.0
CBAR           4       2      10      11     0.0     1.0     0.0
CBAR           5       2      11      12     0.0     1.0     0.0
CBAR           6       2      12      13     0.0     1.0     0.0
CBAR           7       2      13      14     0.0     1.0     0.0
CBAR           8       2      14      15     0.0     1.0     0.0
CBAR           9       2      15      16     0.0     1.0     0.0
CBAR          10       2      16      17     0.0     1.0     0.0
CBAR          11       2      17      18     0.0     1.0     0.0
CBAR          12       2      18      19     0.0     1.0     0.0
CBAR          13       2      19       2     0.0     1.0     0.0
CBAR          14       2       2      20     0.0     1.0     0.0
CBAR          15       2      20      21     0.0     1.0     0.0
CBAR          16       2      21      22     0.0     1.0     0.0
CBAR          17       2      22      23     0.0     1.0     0.0
CBAR          18       2      23      24     0.0     1.0     0.0
CBAR          19       2      24      25     0.0     1.0     0.0
CBAR          20       2      25      26     0.0     1.0     0.0
$ ... 63 like lines cut
CROD          84       3       2       7
CROD          85       3       2       6
CROD          86       3       6       3
CROD          87       3       3       5
PROD,3,10,5.2
$PBARL      1     20              I                                      +      A
$+      A 6.      3.      3.      .5      .5      .5
$PBARL      2     20              I                                      +      B
$+      B 8.      3.      3.      .5      .5      .5
PBAR,1,20,5.5000E+00,2.7958E+01,2.3021E+00,4.7199E-01
PBAR,2,20,6.5000E+00,5.6542E+01,2.3229E+00,5.5811E-01
MAT1,10,1.76+6,,,5.435-5,3.0-6,72.,1900.,1900.
MAT1,20,2.9+7,,.32,7.349-4,6.78-6,72.,24000.,24000.,24000.
GRAV,1,,386.4,0.0,-1.0,0.0
PLOAD1,3,1,FY,FRPR,0.0,-100.,1.0,-50.
PLOAD1,3,2,FY,FRPR,0.0,-100.,1.0,-50.
PLOAD1,3,5,FY,FRPR,0.0,-50.,1.0,0.0
PLOAD1,3,6,FY,FRPR,0.0,-50.,1.0,0.0
$PLOAD1,3,10,FY,LE,36.,-2000.
TEMP,2,1,45.
TEMP,2,2,32.
TEMP,2,3,60.
TEMP,2,4,66.
TEMP,2,5,60.
TEMP,2,6,100.
TEMP,2,7,80.

SPC1           1      12       1
SPC1           1       2       4
ENDDATA
