ID SEMINAR,PROB2
TIME 5
SOL 101
CEND
TITLE = GARAGE ROOF FRAME
SUBTITLE = WOOD AND STEEL MEMBERS
   SPC = 20
   DISP = ALL
   FORCE = ALL
   STRESS = ALL
   SPCFORCE = ALL
SUBCASE 1
   LABEL = GRAVITY LOAD
   LOAD = 1
$SUBCASE 2
$   LABEL = TEMPERATURE LOAD
$   TEMP(LOAD) = 2
$SUBCASE 3
$   LABEL = SNOW AND CONCENTRATED LOAD
$   LOAD = 3
BEGIN BULK
GRID,1,0,0.00E+00,0.00E+00,0.00E+00,,345
GRID,2,0,144.0000,72.00000,0.00E+00,,345
GRID,3,0,72.00000,36.00000,0.00E+00,,345
GRID,4,0,192.0000,0.00E+00,0.00E+00,,345
GRID,5,0,96.00000,0.00E+00,0.00E+00,,345
GRID,6,0,288.0000,144.0000,0.00E+00,,345
GRID,7,0,216.0000,108.0000,0.00E+00,,345
GRID,8,0,384.0000,0.00E+00,0.00E+00,,345
GRID,9,0,288.0000,0.00E+00,0.00E+00,,345
GRID,10,0,432.0000,72.00000,0.00E+00,,345
GRID,11,0,360.0000,108.0000,0.00E+00,,345
GRID,12,0,576.0000,0.00E+00,0.00E+00,,345
GRID,13,0,480.0000,0.00E+00,0.00E+00,,345
GRID,14,0,504.0000,36.00000,0.00E+00,,345
CBAR,1,200,1,3,0.,1.,0.
CBAR,2,200,3,2,0.,1.,0.
CBAR,3,300,1,5,0.,1.,0.
CBAR,4,300,5,4,0.,1.,0.
CBAR,5,200,2,7,0.,1.,0.
CBAR,6,200,7,6,0.,1.,0.
CBAR,7,300,4,9,0.,1.,0.
CBAR,8,300,9,8,0.,1.,0.
CBAR,9,200,6,11,0.,1.,0.
CBAR,10,200,11,10,0.,1.,0.
CBAR,11,300,8,13,0.,1.,0.
CBAR,12,300,13,12,0.,1.,0.
CBAR,13,200,10,14,0.,1.,0.
CBAR,14,200,14,12,0.,1.,0.
CROD,5,100,2,4
CROD,6,100,4,6
CROD,7,100,6,8
CROD,8,100,8,10
PROD,100,10,5.2
$PBARL    200     20              I                                      +      A
$+      A 6.      3.      3.      .5      .5      .5
$PBARL    300     20              I                                      +      B
$+      B 8.      3.      3.      .5      .5      .5
PBAR,200,20,5.5000E+00,2.7958E+01,2.3021E+00,4.7199E-01,0.0000E+00,,+
+,3.0000E+00,1.5000E+00,-3.0000E+00,1.5000E+00,-3.0000E+00,-1.5000E+00,3.0000E+00,-1.5000E+00,+
+,4.9173E-01,4.9883E-01,0.0000E+00
PBAR,300,20,6.5000E+00,5.6542E+01,2.3229E+00,5.5811E-01,0.0000E+00,,+
+,4.0000E+00,1.5000E+00,-4.0000E+00,1.5000E+00,-4.0000E+00,-1.5000E+00,4.0000E+00,-1.5000E+00,+
+,5.6435E-01,4.2984E-01,0.0000E+00
MAT1,10,1.76+6,,,5.435-5,3.0-6,72.,1900.,1900.
MAT1,20,2.9+7,,.32,7.349-4,6.78-6,72.,24000.,24000.,24000.
GRAV,1,,386.4,0.0,-1.0,0.0
PLOAD1,3,1,FY,FRPR,0.0,-100.,1.0,-50.
PLOAD1,3,2,FY,FRPR,0.0,-100.,1.0,-50.
PLOAD1,3,5,FY,FRPR,0.0,-50.,1.0,0.0
PLOAD1,3,6,FY,FRPR,0.0,-50.,1.0,0.0
$PLOAD1,3,10,FY,LE,36.,-2000.
$TEMP,2,1,45.
$TEMP,2,2,32.
$TEMP,2,3,60.
$TEMP,2,4,66.
$TEMP,2,5,60.
$TEMP,2,6,100.
$TEMP,2,7,80.
SPC,20,1,12,0.0
SPC,20,12,2,0.0
ENDDATA
