ID LINEAR,ROD1
SOL 101
TIME 2
CEND
TITLE = LINEAR STATICS USER'S GUIDE PROBLEM 4.3
SUBTITLE = ROD MODEL
LABEL = POINT LOAD AT GRID POINT 2
LOAD = 1
SPC = 2
DISPLACEMENT = ALL
BEGIN BULK
$
$ THE GRID POINTS LOCATIONS 
$ DESCRIBE THE GEOMETRY
$
GRID    1               0.      0.      0.              123456
GRID    2               8.      0.      0.              23456
GRID    3               22.     0.      0.              123456
$ LD ADDED NEXT FREE GRID
GRID    4               -1.0    -1.0    0.
$
$ MEMBERS ARE MODELED USING
$ ROD ELEMENTS
$
CROD    1       1       1       2
CROD    2       1       2       3
$
$ PROPERTIES  OF ROD ELEMENTS
$
PROD    1       1       .1      1.
$
$ MATERIAL PROPERTIES 
$
MAT1    1       30.E6           .3
$
$ POINT LOAD
$
FORCE   1       2               1000.   1.      0.      0.
$ LD ADDED NEXT INEFFECTIVE FORCE
FORCE   1       4               0.      1.      0.      0.
$
$SPC1    2       123456  1       3
$
ENDDATA 
