$ Created by Gmsh
SOL 101
CEND
SUBCASE 1
    SPC=1
    LOAD=1
    SET 1 = 2
    DISPLACEMENT=1
BEGIN BULK
GRID    1       0       0.00E+00-5.0000010.00000
GRID    2       0       300.0000-5.0000010.00000
GRID    3       0       10.00000-5.0000010.00000
GRID    4       0       20.00000-5.0000010.00000
GRID    5       0       30.00000-5.0000010.00000
GRID    6       0       40.00000-5.0000010.00000
GRID    7       0       50.00000-5.0000010.00000
GRID    8       0       60.00000-5.0000010.00000
GRID    9       0       70.00000-5.0000010.00000
GRID    10      0       80.00000-5.0000010.00000
GRID    11      0       90.00000-5.0000010.00000
GRID    12      0       100.0000-5.0000010.00000
GRID    13      0       110.0000-5.0000010.00000
GRID    14      0       120.0000-5.0000010.00000
GRID    15      0       130.0000-5.0000010.00000
GRID    16      0       140.0000-5.0000010.00000
GRID    17      0       150.0000-5.0000010.00000
GRID    18      0       160.0000-5.0000010.00000
GRID    19      0       170.0000-5.0000010.00000
GRID    20      0       180.0000-5.0000010.00000
$ ... 11 like lines cut
$++1+++ ---2--- +++3+++ ---4--- +++5+++ ---6--- +++7+++ ---8--- +++9+++ ---A---
CBAR    1       6       1       3          0.      0.      1.
CBAR    2       6       3       4          0.      0.      1.
CBAR    3       6       4       5          0.      0.      1.
CBAR    4       6       5       6          0.      0.      1.
CBAR    5       6       6       7          0.      0.      1.
CBAR    6       6       7       8          0.      0.      1.
CBAR    7       6       8       9          0.      0.      1.
CBAR    8       6       9       10         0.      0.      1.
CBAR    9       6       10      11         0.      0.      1.
CBAR    10      6       11      12         0.      0.      1.
CBAR    11      6       12      13         0.      0.      1.
CBAR    12      6       13      14         0.      0.      1.
CBAR    13      6       14      15         0.      0.      1.
CBAR    14      6       15      16         0.      0.      1.
CBAR    15      6       16      17         0.      0.      1.
CBAR    16      6       17      18         0.      0.      1.
CBAR    17      6       18      19         0.      0.      1.
CBAR    18      6       19      20         0.      0.      1.
CBAR    19      6       20      21         0.      0.      1.
CBAR    20      6       21      22         0.      0.      1.
$ ... 10 like lines cut
$++0+++ ---1--- +++2+++ ---3--- +++4+++ ---5--- +++6+++ ---7--- +++8+++ ---9--- +++10+++
SPC1    1       123456  1
SPC1    1       4       1         THRU     31
FORCE   1       2                100.    0.      0.     -1.
PBEAML         6       1        BAR                                     +B1
+B1         10.0    20.0
MAT1    1        2.E5           .3
ENDDATA
