$ Created by Gmsh
SOL 101
CEND
SUBCASE 1
    SPC=1
    LOAD=1
    SET 1 = 312
    DISPLACEMENT=1
BEGIN BULK
$ Created by Gmsh
GRID    1       0       0.00E+000.00E+000.00E+00
GRID    2       0       1.11E-15-10.00000.00E+00
GRID    3       0       5.55E-16-5.000000.00E+00
GRID    4       0       0.00E+000.00E+0020.00000
GRID    5       0       1.11E-15-10.000020.00000
GRID    6       0       5.55E-16-5.0000020.00000
GRID    7       0       300.00003.33E-140.00E+00
GRID    8       0       300.0000-10.00000.00E+00
GRID    9       0       300.0000-5.000000.00E+00
GRID    10      0       300.00003.33E-1420.00000
GRID    11      0       300.0000-10.000020.00000
GRID    12      0       300.0000-5.0000020.00000
GRID    13      0       1.11E-15-10.00006.053161
GRID    14      0       1.11E-15-10.000013.91480
GRID    15      0       0.00E+000.00E+006.053161
GRID    16      0       0.00E+000.00E+0013.91480
GRID    17      0       300.0000-10.000013.91480
GRID    18      0       300.00003.46E-1413.91480
GRID    19      0       300.00003.46E-146.053161
GRID    20      0       300.0000-10.00006.053161
$ ... 321 like lines cut
CPENTA  461     6       11      12      17      136     283     165
CPENTA  462     6       136     283     165     135     284     164
CPENTA  463     6       135     284     164     134     285     163
CPENTA  464     6       134     285     163     133     286     162
CPENTA  465     6       133     286     162     132     287     161
CPENTA  466     6       132     287     161     131     288     160
CPENTA  467     6       131     288     160     130     289     159
CPENTA  468     6       130     289     159     129     290     158
CPENTA  469     6       129     290     158     128     291     157
CPENTA  470     6       128     291     157     127     292     156
CPENTA  471     6       127     292     156     126     293     155
CPENTA  472     6       126     293     155     125     294     154
CPENTA  473     6       125     294     154     124     295     153
CPENTA  474     6       124     295     153     123     296     152
CPENTA  475     6       123     296     152     122     297     151
CPENTA  476     6       122     297     151     121     298     150
CPENTA  477     6       121     298     150     120     299     149
CPENTA  478     6       120     299     149     119     300     148
CPENTA  479     6       119     300     148     118     301     147
CPENTA  480     6       118     301     147     117     302     146
$ ... 280 like lines cut
MAT1    1        2.E5           .3
PSOLID  6       1       0       THREE   GRID    FULL    SMECH
$---1--][---2--][---3--][---4--][---5--][---6--][---7--][---8--][---9--][--10--]
SPC1    1       123     1       THRU    6       13      THRU    17
PLOAD4  1       461     0.5                             12              +B1
+B1             0.0     0.0     -1.0
PLOAD4  1       491     0.5                             12              +B1
+B1             0.0     0.0     -1.0
PLOAD4  1       731     0.5                             312             +B1
+B1             0.0     0.0     -1.0
PLOAD4  1       641     0.5                             312             +B1
+B1             0.0     0.0     -1.0
PLOAD4  1       671     0.5                             312             +B1
+B1             0.0     0.0     -1.0
PLOAD4  1       581     0.5                             312             +B1
+B1             0.0     0.0     -1.0
PLOAD4  1       701     0.5                             312             +B1
+B1             0.0     0.0     -1.0
PLOAD4  1       611     0.5                             312             +B1
+B1             0.0     0.0     -1.0
PLOAD4  1       521     0.5                              9              +B1
+B1             0.0     0.0     -1.0
PLOAD4  1       551     0.5                              9              +B1
+B1             0.0     0.0     -1.0

ENDDATA
