$ NASTRAN input file created by the MSC MSC.Nastran input file
$ translator ( MSC.Patran 13.1.116 ) on August    04, 2005 at 11:49:40.
$ Direct Text Input for Nastran System Cell Section
$ Direct Text Input for File Management Section
$ Implicit Nonlinear Analysis
SOL 600,NLSTATIC STOP=1
$ Direct Text Input for Executive Control
CEND
TITLE = MSC.Nastran job created on 04-Aug-05 at 11:32:08
$ Direct Text Input for Global Case Control Data
   BCONTACT = 0
SUBCASE 1
$ Subcase name : Default
   SUBTITLE=Default
   NLPARM = 1
   BCONTACT = 1
   SPC = 2
   LOAD = 1
$ Direct Text Input for this Subcase
BEGIN BULK
PARAM   PRTMAXIM YES
BCPARA   0       NBODIES 4       MAXENT  1710    MAXNOD  1712
PARAM    LGDISP  1
PARAM   MARCSLHT 5
MARCOUT          E241    E242    E321    E341    N1      N5      N38
NLPARM   1                       AUTO    1       25      P       YES
BCTABLE  0                       5
         SLAVE   10      0.      0.      0.      0.      0       0.
                 0       0       0
         MASTERS 7
         SLAVE   8       0.      0.      0.      0.      1       0.
                 0       0       0
         MASTERS 7
         SLAVE   10      0.      0.      0.      0.      0       0.
                 0       0       0
         MASTERS 8
         SLAVE   9       0.      0.      0.      0.      1       0.
                 0       0       0
         MASTERS 8
         SLAVE   10      0.      0.      0.      0.      0       0.
                 0       0       0
         MASTERS 9
BCTABLE  1                       5
         SLAVE   10      0.      0.      0.      0.      0       0.
                 0       0       0
         MASTERS 7
         SLAVE   8       0.      0.      0.      0.      1       0.
                 0       0       0
         MASTERS 7
         SLAVE   10      0.      0.      0.      0.      0       0.
                 0       0       0
         MASTERS 8
         SLAVE   9       0.      0.      0.      0.      1       0.
                 0       0       0
         MASTERS 8
         SLAVE   10      0.      0.      0.      0.      0       0.
                 0       0       0
         MASTERS 9
$ Direct Text Input for Bulk Data
$ Elements and Element Properties for region : gasket_body
PSOLID   1       1       0
MATG     1       2       0       1       2
                                                        52.     72.
        35.     .0909091
$ Pset: "gasket_body" will be imported as: "psolid.1"
CHEXA    285     1       540     542     543     541     972     974
         975     973
CHEXA    286     1       542     544     545     543     974     976
         977     975
CHEXA    287     1       541     543     547     546     973     975
         979     978
CHEXA    288     1       543     545     548     547     975     977
         980     979
CHEXA    289     1       546     547     550     549     978     979
         982     981
CHEXA    290     1       547     548     551     550     979     980
         983     982
CHEXA    291     1       549     550     553     552     981     982
         985     984
CHEXA    292     1       550     551     554     553     982     983
         986     985
CHEXA    293     1       552     553     556     555     984     985
         988     987
CHEXA    294     1       553     554     557     556     985     986
         989     988
CHEXA    295     1       555     556     559     558     987     988
         991     990
CHEXA    296     1       556     557     560     559     988     989
         992     991
CHEXA    297     1       558     559     562     561     990     991
         994     993
CHEXA    298     1       559     560     563     562     991     992
         995     994
CHEXA    299     1       561     562     565     564     993     994
         997     996
CHEXA    300     1       562     563     566     565     994     995
         998     997
CHEXA    301     1       564     565     568     567     996     997
         1000    999
CHEXA    302     1       565     566     569     568     997     998
         1001    1000
CHEXA    303     1       567     568     571     570     999     1000
         1003    1002
CHEXA    304     1       568     569     572     571     1000    1001
         1004    1003
$ ... 1164 like lines cut
$ Elements and Element Properties for region : gasket_ring
PSOLID   2       3       0
MATG     3       4       0       3       4
                                                        42.     64.
        35.      0.
$ Pset: "gasket_ring" will be imported as: "psolid.2"
CHEXA    586     2       544     627     628     545     976     1346
         1347    977
CHEXA    587     2       627     629     630     628     1346    1348
         1349    1347
CHEXA    588     2       629     631     632     630     1348    1059
         1060    1349
CHEXA    589     2       545     628     633     548     977     1347
         1350    980
CHEXA    590     2       628     630     634     633     1347    1349
         1351    1350
CHEXA    591     2       630     632     635     634     1349    1060
         1061    1351
CHEXA    592     2       548     633     636     551     980     1350
         1352    983
CHEXA    593     2       633     634     637     636     1350    1351
         1353    1352
CHEXA    594     2       634     635     638     637     1351    1061
         1062    1353
CHEXA    595     2       551     636     639     554     983     1352
         1354    986
CHEXA    596     2       636     637     640     639     1352    1353
         1355    1354
CHEXA    597     2       637     638     641     640     1353    1062
         1063    1355
CHEXA    598     2       554     639     642     557     986     1354
         1356    989
CHEXA    599     2       639     640     643     642     1354    1355
         1357    1356
CHEXA    600     2       640     641     644     643     1355    1063
         1064    1357
CHEXA    601     2       557     642     645     560     989     1356
         1358    992
CHEXA    602     2       642     643     646     645     1356    1357
         1359    1358
CHEXA    603     2       643     644     647     646     1357    1064
         1065    1359
CHEXA    604     2       560     645     648     563     992     1358
         1360    995
CHEXA    605     2       645     646     649     648     1358    1359
         1361    1360
$ ... 296 like lines cut
$ Elements and Element Properties for region : cylinder_head
PSOLID   3       5       0
$ Pset: "cylinder_head" will be imported as: "psolid.3"
CHEXA    1       3       2       11      14      5       1       10
         13      4
CHEXA    2       3       3       12      15      6       2       11
         14      5
CHEXA    3       3       5       14      17      8       4       13
         16      7
CHEXA    4       3       6       15      18      9       5       14
         17      8
CHEXA    5       3       8       17      26      20      7       16
         25      19
CHEXA    6       3       9       18      27      21      8       17
         26      20
CHEXA    7       3       20      26      29      23      19      25
         28      22
CHEXA    8       3       21      27      30      24      20      26
         29      23
CHEXA    9       3       23      29      54      32      22      28
         53      31
CHEXA    10      3       24      30      55      33      23      29
         54      32
CHEXA    11      3       32      54      57      35      31      53
         56      34
CHEXA    12      3       33      55      58      36      32      54
         57      35
CHEXA    13      3       35      57      60      38      34      56
         59      37
CHEXA    14      3       36      58      61      39      35      57
         60      38
CHEXA    15      3       38      60      63      41      37      59
         62      40
CHEXA    16      3       39      61      64      42      38      60
         63      41
CHEXA    17      3       41      63      66      44      40      62
         65      43
CHEXA    18      3       42      64      67      45      41      63
         66      44
CHEXA    19      3       44      66      69      47      43      65
         68      46
CHEXA    20      3       45      67      70      48      44      66
         69      47
$ ... 1056 like lines cut
CPENTA   2149    3       71      74      72      49      52      50
CPENTA   2150    3       72      74      73      50      52      51
CPENTA   2151    3       73      74      259     51      52      203
CPENTA   2152    3       259     74      260     203     52      204
CPENTA   2153    3       260     74      261     204     52      205
CPENTA   2154    3       261     74      262     205     52      206
CPENTA   2155    3       262     74      263     206     52      207
CPENTA   2156    3       263     74      264     207     52      208
CPENTA   2157    3       264     74      265     208     52      209
CPENTA   2158    3       265     74      266     209     52      210
CPENTA   2159    3       266     74      2314    210     52      2265
CPENTA   2160    3       2314    74      2313    2265    52      2264
CPENTA   2161    3       2313    74      2312    2264    52      2263
CPENTA   2162    3       2312    74      2311    2263    52      2262
CPENTA   2163    3       2311    74      2310    2262    52      2261
CPENTA   2164    3       2310    74      2309    2261    52      2260
CPENTA   2165    3       2309    74      2308    2260    52      2259
CPENTA   2166    3       2308    74      2146    2259    52      2125
CPENTA   2167    3       2146    74      2145    2125    52      2124
CPENTA   2168    3       2145    74      2144    2124    52      2123
$ Elements and Element Properties for region : lower_part
PSOLID   4       5       0
$ Pset: "lower_part" will be imported as: "psolid.4"
CHEXA    670     4       1435    1436    1448    1434    1619    1622
         1658    1616
CHEXA    671     4       1619    1622    1658    1616    1620    1623
         1659    1617
CHEXA    672     4       1620    1623    1659    1617    1621    1624
         1660    1618
CHEXA    673     4       1436    1437    1449    1448    1622    1625
         1661    1658
CHEXA    674     4       1622    1625    1661    1658    1623    1626
         1662    1659
CHEXA    675     4       1623    1626    1662    1659    1624    1627
         1663    1660
CHEXA    676     4       1450    1449    1437    1438    1664    1661
         1625    1628
CHEXA    677     4       1664    1661    1625    1628    1665    1662
         1626    1629
CHEXA    678     4       1665    1662    1626    1629    1666    1663
         1627    1630
CHEXA    679     4       1439    1440    1450    1438    1631    1634
         1664    1628
CHEXA    680     4       1631    1634    1664    1628    1632    1635
         1665    1629
CHEXA    681     4       1632    1635    1665    1629    1633    1636
         1666    1630
CHEXA    682     4       1405    1406    1451    1404    1529    1532
         1667    1526
CHEXA    683     4       1529    1532    1667    1526    1530    1533
         1668    1527
CHEXA    684     4       1530    1533    1668    1527    1531    1534
         1669    1528
CHEXA    685     4       1413    1414    1452    1412    1553    1556
         1670    1550
CHEXA    686     4       1553    1556    1670    1550    1554    1557
         1671    1551
CHEXA    687     4       1554    1557    1671    1551    1555    1558
         1672    1552
CHEXA    688     4       1414    1415    1453    1452    1556    1559
         1673    1670
CHEXA    689     4       1556    1559    1673    1670    1557    1560
         1674    1671
$ ... 1148 like lines cut
$ Elements and Element Properties for region : left_bolt
PSOLID   5       5       0
$ Pset: "left_bolt" will be imported as: "psolid.5"
CHEXA    2041    5       3556    3904    3913    3559    3433    3898
         3901    3434
CHEXA    2042    5       3557    3905    3914    3560    3556    3904
         3913    3559
CHEXA    2043    5       3558    3906    3915    3561    3557    3905
         3914    3560
CHEXA    2044    5       3916    3562    3559    3913    3902    3435
         3434    3901
CHEXA    2045    5       3917    3563    3560    3914    3916    3562
         3559    3913
CHEXA    2046    5       3918    3564    3561    3915    3917    3563
         3560    3914
CHEXA    2047    5       3562    3916    3919    3565    3435    3902
         3903    3436
CHEXA    2048    5       3563    3917    3920    3566    3562    3916
         3919    3565
CHEXA    2049    5       3564    3918    3921    3567    3563    3917
         3920    3566
CHEXA    2050    5       3568    3565    3919    3910    3437    3436
         3903    3900
CHEXA    2051    5       3569    3566    3920    3911    3568    3565
         3919    3910
CHEXA    2052    5       3570    3567    3921    3912    3569    3566
         3920    3911
CHEXA    2053    5       3904    3907    3916    3913    3898    3899
         3902    3901
CHEXA    2054    5       3905    3908    3917    3914    3904    3907
         3916    3913
CHEXA    2055    5       3906    3909    3918    3915    3905    3908
         3917    3914
CHEXA    2056    5       3907    3910    3919    3916    3899    3900
         3903    3902
CHEXA    2057    5       3908    3911    3920    3917    3907    3910
         3919    3916
CHEXA    2058    5       3909    3912    3921    3918    3908    3911
         3920    3917
CHEXA    2059    5       3946    3952    3970    3940    3558    3906
         3915    3561
CHEXA    2060    5       3947    3953    3971    3941    3946    3952
         3970    3940
$ ... 176 like lines cut
$ Elements and Element Properties for region : right_bolt
PSOLID   6       5       0
$ Pset: "right_bolt" will be imported as: "psolid.6"
CHEXA    967     6       1407    1892    1895    1408    1535    1898
         1907    1538
CHEXA    968     6       1535    1898    1907    1538    1536    1899
         1908    1539
CHEXA    969     6       1536    1899    1908    1539    1537    1900
         1909    1540
CHEXA    970     6       1896    1409    1408    1895    1910    1541
         1538    1907
CHEXA    971     6       1910    1541    1538    1907    1911    1542
         1539    1908
CHEXA    972     6       1911    1542    1539    1908    1912    1543
         1540    1909
CHEXA    973     6       1409    1896    1897    1410    1541    1910
         1913    1544
CHEXA    974     6       1541    1910    1913    1544    1542    1911
         1914    1545
CHEXA    975     6       1542    1911    1914    1545    1543    1912
         1915    1546
CHEXA    976     6       1411    1410    1897    1894    1547    1544
         1913    1904
CHEXA    977     6       1547    1544    1913    1904    1548    1545
         1914    1905
CHEXA    978     6       1548    1545    1914    1905    1549    1546
         1915    1906
CHEXA    979     6       1892    1893    1896    1895    1898    1901
         1910    1907
CHEXA    980     6       1898    1901    1910    1907    1899    1902
         1911    1908
CHEXA    981     6       1899    1902    1911    1908    1900    1903
         1912    1909
CHEXA    982     6       1893    1894    1897    1896    1901    1904
         1913    1910
CHEXA    983     6       1901    1904    1913    1910    1902    1905
         1914    1911
CHEXA    984     6       1902    1905    1914    1911    1903    1906
         1915    1912
CHEXA    985     6       1537    1900    1909    1540    1940    1946
         1964    1934
CHEXA    986     6       1940    1946    1964    1934    1941    1947
         1965    1935
$ ... 176 like lines cut
$ Referenced Material Records
$ Material Record : gasket_body_membrane
$ Description of Material :
MAT1     2      120.    60.             1.      5.-5
$ Material Record : steel
$ Description of Material :
MAT1     5      210000. 80769.2 .3      1.      1.5-5
$ Material Record : gasket_ring_membrane
$ Description of Material :
MAT1     4      100.    50.             1.      1.-4
$ Material Tables ( No Conversions Needed )
$ Displacement Dependent Table : body_loading
TABLES1  1
         0.      0.     .027    2.08    .054    8.32    .081    18.72
        .108    33.28   .135    52.     .175    56.      ENDT
$ Displacement Dependent Table : body_unloading
TABLES1  2
        .1       0.     .1225   5.04    .1375   14.     .1525   27.44
        .16     35.84   .1675   45.36   .175    56.      ENDT
$ Displacement Dependent Table : ring_unloading
TABLES1  4
        .12      0.     .138    4.32    .15     12.     .162    23.52
        .168    30.72   .174    38.88   .18     48.      ENDT
$ Displacement Dependent Table : ring_loading
TABLES1  3
         0.      0.     .026    1.68    .052    6.72    .078    15.12
        .104    26.88   .13     42.     .18     48.      ENDT
$ Multipoint Constraints of the Entire Model
$ ID conflict : the PATRAN MPC ID was 1
MBOLTUS  2169    4083
         TOP     4084    4085    4086    4087    4088    4089    4090
                 4091    4092    4093    4094
         BOTTOM  3924    3930    3936    3942    3948    3954    3960
                 3966    3972    3978    3984
$ ID conflict : the PATRAN MPC ID was 2
MBOLTUS  2170    4095
         TOP     4096    4097    4098    4099    4100    4101    4102
                 4103    4104    4105    4106
         BOTTOM  1918    1924    1930    1936    1942    1948    1954
                 1960    1966    1972    1978
$ Nodes of the Entire Model
GRID     1              25.      0.     16.
GRID     2              24.6932 3.90455 16.
GRID     3              23.7804 7.71326 16.
GRID     4              24.8993  0.     18.2412
GRID     5              24.5938 3.88882 18.2412
GRID     6              23.6846 7.68221 18.2412
GRID     7              24.5982  0.     20.4643
GRID     8              24.2963 3.84179 20.4643
GRID     9              23.3981 7.58929 20.4643
GRID     10             27.55    0.     16.
GRID     11             27.2119 4.3028  16.
GRID     12             26.2059 8.5     16.
GRID     13             27.55    0.     18.5
GRID     14             27.2119 4.3028  18.5
GRID     15             26.2059 8.5     18.5
GRID     16             27.55    0.     21.
GRID     17             27.2119 4.3028  21.
GRID     18             26.2059 8.5     21.
GRID     19             24.0784  0.     22.7254
GRID     20             23.7829 3.76061 22.7254
$ ... 31 like lines cut
GRID*    52                             -4.44089-15      0.
*       41.
GRID     53             24.3557  0.     29.813
GRID     54             24.0568 3.80392 29.813
GRID     55             23.1675 7.51447 29.813
GRID     56             22.0059  0.     33.313
GRID     57             21.7359 3.43693 33.313
GRID     58             20.9324 6.7895  33.313
GRID     59             19.1573  0.     36.4205
GRID     60             18.9222 2.99203 36.4205
GRID     61             18.2227 5.91062 36.4205
GRID     62             15.8745  0.     39.0651
GRID     63             15.6797 2.47931 39.0651
GRID     64             15.1001 4.89777 39.0651
GRID     65             12.2319  0.     41.1869
GRID     66             12.0818 1.91039 41.1869
GRID     67             11.6351 3.7739  41.1869
GRID     68             8.31193  0.     42.7378
GRID     69             8.20993 1.29817 42.7378
GRID     70             7.90643 2.56449 42.7378
GRID     71             4.20361  0.     43.6827
GRID     72             4.15202 .656528 43.6827
GRID     73             3.99853 1.29694 43.6827
GRID*    74                             8.88178-16       0.
*       44.
GRID     75             22.2802 11.3398 16.
GRID     76             20.2311 14.6869 16.
GRID     77             17.6833 17.672  16.
GRID     78             14.6998 20.2217 16.
GRID     79             11.354  22.273  16.
GRID     80             7.72847 23.7754 16.
GRID     81             3.91244 24.692  16.
GRID*    82                             -1.33227-15     25.
*       16.
GRID     83             22.1905 11.2941 18.2412
GRID     84             20.1496 14.6277 18.2412
GRID     85             17.6121 17.6009 18.2412
GRID     86             14.6406 20.1403 18.2412
GRID     87             11.3083 22.1833 18.2412
GRID     88             7.69735 23.6797 18.2412
GRID     89             3.89669 24.5925 18.2412
GRID*    90                             -4.44089-16     24.8993
*       18.2412
GRID     91             21.9221 11.1575 20.4643
GRID     92             19.9059 14.4508 20.4643
GRID     93             17.3991 17.388  20.4643
GRID     94             14.4635 19.8966 20.4643
GRID     95             11.1715 21.915  20.4643
GRID     96             7.60425 23.3933 20.4643
GRID     97             3.84956 24.2951 20.4643
GRID*    98                             -4.44089-16     24.5982
*       20.4643
GRID     99             24.5528 12.4964 16.
GRID     100            22.2946 16.1849 16.
GRID     101            19.487  19.4745 16.
GRID     102            16.1992 22.2842 16.
GRID     103            12.5121 24.5448 16.
GRID     104            8.51675 26.2005 16.
GRID     105            4.3115  27.2105 16.
GRID*    106                            5.32907-15      27.55
*       16.
GRID     107            24.5528 12.4964 18.5
GRID     108            22.2946 16.1849 18.5
GRID     109            19.487  19.4745 18.5
GRID     110            16.1992 22.2842 18.5
GRID     111            12.5121 24.5448 18.5
GRID     112            8.51675 26.2005 18.5
GRID     113            4.3115  27.2105 18.5
GRID     114             0.     27.55   18.5
GRID     115            24.5528 12.4964 21.
GRID     116            22.2946 16.1849 21.
GRID     117            19.487  19.4745 21.
GRID     118            16.1992 22.2842 21.
GRID     119            12.5121 24.5448 21.
GRID     120            8.51675 26.2005 21.
GRID     121            4.3115  27.2105 21.
GRID*    122                            8.88178-16      27.55
*       21.
GRID     123            21.4589 10.9218 22.7254
GRID     124            19.4853 14.1455 22.7254
GRID     125            17.0314 17.0206 22.7254
GRID     126            14.1579 19.4762 22.7254
GRID     127            10.9355 21.4519 22.7254
GRID     128            7.44356 22.899  22.7254
GRID     129            3.76821 23.7817 22.7254
GRID*    130                            8.88178-16      24.0784
*       22.7254
GRID     131            20.8109 10.5919 24.9286
GRID     132            18.8968 13.7183 24.9286
GRID     133            16.5171 16.5066 24.9286
GRID     134            13.7304 18.888  24.9286
GRID     135            10.6052 20.8041 24.9286
GRID     136            7.21877 22.2074 24.9286
GRID     137            3.65441 23.0635 24.9286
GRID*    138                            3.55271-15      23.3512
*       24.9286
GRID     139            24.034  12.2324 23.5324
GRID     140            21.8235 15.8429 23.5324
GRID     141            19.0752 19.063  23.5324
GRID     142            15.8569 21.8134 23.5324
GRID     143            12.2477 24.0261 23.5324
GRID     144            8.33679 25.6468 23.5324
GRID     145            4.2204  26.6355 23.5324
GRID*    146                            1.77636-15      26.9678
*       23.5324
GRID     147            23.3082 11.863  26.
GRID     148            21.1644 15.3645 26.
GRID     149            18.4992 18.4873 26.
GRID     150            15.378  21.1546 26.
GRID     151            11.8779 23.3006 26.
GRID     152            8.08502 24.8723 26.
GRID     153            4.09294 25.8311 26.
GRID*    154                            -8.88178-16     26.1534
*       26.
GRID     155            19.3804 9.86387 28.3331
GRID     156            17.5979 12.7753 28.3331
GRID     157            15.3818 15.3719 28.3331
GRID     158            12.7866 17.5897 28.3331
GRID     159            9.87627 19.3741 28.3331
GRID     160            6.72258 20.681  28.3331
GRID     161            3.40322 21.4782 28.3331
GRID*    162                            -8.88178-16     21.7462
*       28.3331
GRID     163            17.5106 8.91223 31.458
GRID     164            15.9001 11.5428 31.458
GRID     165            13.8978 13.8889 31.458
GRID     166            11.553  15.8927 31.458
GRID     167            8.92343 17.5049 31.458
GRID     168            6.074   18.6857 31.458
GRID     169            3.07489 19.406  31.458
GRID*    170                            -4.44089-16     19.6481
*       31.458
GRID     171            15.2439 7.75858 34.2326
GRID     172            13.8419 10.0486 34.2326
GRID     173            12.0988 12.091  34.2326
GRID     174            10.0575 13.8355 34.2326
GRID     175            7.76832 15.239  34.2326
GRID     176            5.28774 16.2669 34.2326
GRID     177            2.67685 16.894  34.2326
GRID*    178                            -1.33227-15     17.1048
*       34.2326
GRID     179            12.6317 6.42906 36.5939
GRID     180            11.4699 8.32667 36.5939
GRID     181            10.0255 10.0191 36.5939
GRID     182            8.33401 11.4646 36.5939
GRID     183            6.43713 12.6276 36.5939
GRID     184            4.38163 13.4794 36.5939
GRID     185            2.21815 13.999  36.5939
GRID*    186                            4.44089-16      14.1737
*       36.5939
GRID     187            9.73316 4.95381 38.4883
GRID     188            8.83798 6.41599 38.4883
GRID     189            7.72499 7.72005 38.4883
GRID     190            6.42164 8.83387 38.4883
GRID     191            4.96003 9.73    38.4883
GRID     192            3.37619 10.3863 38.4883
GRID     193            1.70916 10.7867 38.4883
GRID*    194                            8.88178-16      10.9213
*       38.4883
GRID     195            6.614   3.36627 39.8731
GRID     196            6.00569 4.35987 39.8731
GRID     197            5.24938 5.24602 39.8731
GRID     198            4.36371 6.0029  39.8731
GRID     199            3.3705  6.61184 39.8731
GRID     200            2.29423 7.05785 39.8731
GRID     201            1.16143 7.32993 39.8731
GRID*    202                            8.88178-16      7.42137
*       39.8731
GRID     203            3.34491 1.70243 40.7167
GRID     204            3.03727 2.20492 40.7167
GRID     205            2.65478 2.65308 40.7167
GRID     206            2.20687 3.03586 40.7167
GRID     207            1.70457 3.34382 40.7167
GRID     208            1.16027 3.56938 40.7167
GRID     209            .58737  3.70698 40.7167
GRID*    210                            3.33067-16      3.75322
*       40.7167
GRID     211            21.706  11.0475 29.813
GRID     212            19.7097 14.3084 29.813
GRID     213            17.2276 17.2166 29.813
GRID     214            14.321  19.7005 29.813
GRID     215            11.0614 21.699  29.813
GRID     216            7.52929 23.1627 29.813
GRID     217            3.81161 24.0556 29.813
GRID*    218                            1.77636-15      24.3557
*       29.813
GRID     219            19.6119 9.9817  33.313
GRID     220            17.8081 12.9279 33.313
GRID     221            15.5655 15.5556 33.313
GRID     222            12.9393 17.7999 33.313
GRID     223            9.99424 19.6055 33.313
GRID     224            6.80288 20.928  33.313
GRID     225            3.44387 21.7348 33.313
GRID*    226                            2.22045-15      22.0059
*       33.313
GRID     227            17.0732 8.68961 36.4205
GRID     228            15.5029 11.2545 36.4205
GRID     229            13.5506 13.542  36.4205
GRID     230            11.2644 15.4957 36.4205
GRID     231            8.70052 17.0676 36.4205
GRID     232            5.92227 18.219  36.4205
GRID     233            2.99808 18.9213 36.4205
GRID*    234                            8.88178-16      19.1573
*       36.4205
GRID     235            14.1475 7.20054 39.0651
GRID     236            12.8463 9.32587 39.0651
GRID     237            11.2286 11.2214 39.0651
GRID     238            9.33409 12.8404 39.0651
GRID     239            7.20959 14.1429 39.0651
GRID     240            4.90742 15.0969 39.0651
GRID     241            2.48432 15.6789 39.0651
GRID*    242                            -8.88178-16     15.8745
*       39.0651
GRID     243            10.9011 5.54827 41.1869
GRID     244            9.89853 7.18591 41.1869
GRID     245            8.65199 8.64646 41.1869
GRID     246            7.19223 9.89394 41.1869
GRID     247            5.55524 10.8976 41.1869
GRID     248            3.78134 11.6327 41.1869
GRID     249            1.91426 12.0811 41.1869
GRID*    250                            1.11022-15      12.2319
*       41.1869
GRID     251            7.40768 3.77022 42.7378
GRID     252            6.72637 4.88305 42.7378
GRID     253            5.8793  5.87555 42.7378
GRID     254            4.88735 6.72325 42.7378
GRID     255            3.77496 7.40526 42.7378
GRID     256            2.56954 7.90479 42.7378
GRID     257            1.3008  8.20952 42.7378
GRID*    258                            -4.44089-16     8.31193
*       42.7378
GRID     259            3.7463  1.90672 43.6827
GRID     260            3.40174 2.46951 43.6827
GRID     261            2.97335 2.97145 43.6827
GRID     262            2.47169 3.40016 43.6827
GRID     263            1.90912 3.74508 43.6827
GRID     264            1.2995  3.9977  43.6827
GRID     265            .657855 4.15181 43.6827
GRID*    266                            3.33067-16      4.20361
*       43.6827
GRID     267            40.55    0.     16.
GRID     268            40.55    0.     18.5
GRID     269            40.55    0.     21.
GRID     270            44.55    0.     16.
GRID     271            44.55    0.     18.5
GRID     272            44.55    0.     21.
GRID     273            40.2074 1.72208 16.
GRID     274            40.2074 1.72208 18.5
GRID     275            40.2074 1.72208 21.
GRID     276            39.2319 3.18198 16.
GRID     277            39.2319 3.18198 18.5
GRID     278            39.2319 3.18198 21.
GRID     279            37.772  4.15746 16.
GRID     280            37.772  4.15746 18.5
GRID     281            37.772  4.15746 21.
GRID     282            36.05   4.5     16.
GRID     283            36.05   4.5     18.5
GRID     284            36.05   4.5     21.
GRID     285            34.3279 4.15746 16.
GRID     286            34.3279 4.15746 18.5
$ ... 7 like lines cut
GRID*    294                            31.55           1.77636-15
*       16.
GRID*    295                            31.55           1.77636-15
*       18.5
GRID*    296                            31.55           1.77636-15
*       21.
GRID     297            43.9029 3.25281 16.
GRID     298            43.9029 3.25281 18.5
GRID     299            43.9029 3.25281 21.
GRID     300            42.0604 6.01041 16.
GRID     301            42.0604 6.01041 18.5
GRID     302            42.0604 6.01041 21.
GRID     303            39.3028 7.85297 16.
GRID     304            39.3028 7.85297 18.5
GRID     305            39.3028 7.85297 21.
GRID     306            36.05   8.5     16.
GRID     307            36.05   8.5     18.5
GRID     308            36.05   8.5     21.
GRID     309            31.1279 8.5     16.
GRID     310            31.1279 8.5     18.5
GRID     311            31.1279 8.5     21.
GRID     312            41.8833  0.     16.
GRID     313            41.8833  0.     18.5
GRID     314            41.8833  0.     21.
GRID     315            41.4393 2.23232 16.
GRID     316            41.4393 2.23232 18.5
$ ... 43 like lines cut
GRID*    360                            30.2166         1.75905-15
*       16.
GRID*    361                            30.2166         1.75905-15
*       18.5
GRID*    362                            30.2166         1.75905-15
*       21.
GRID*    363                            28.8833         1.74174-15
*       16.
GRID*    364                            28.8833         1.74174-15
*       18.5
GRID*    365                            28.8833         1.74174-15
*       21.
GRID     366            40.55    0.     23.5
GRID     367            40.55    0.     26.
GRID     368            44.55    0.     23.5
GRID     369            44.55    0.     26.
GRID     370            40.2074 1.72208 23.5
GRID     371            40.2074 1.72208 26.
GRID     372            39.2319 3.18198 23.5
GRID     373            39.2319 3.18198 26.
GRID     374            37.772  4.15746 23.5
GRID     375            37.772  4.15746 26.
GRID     376            36.05   4.5     23.5
GRID     377            36.05   4.5     26.
GRID     378            34.3279 4.15746 23.5
GRID     379            34.3279 4.15746 26.
GRID     380            32.868  3.18198 23.5
GRID     381            32.868  3.18198 26.
GRID     382            31.8925 1.72208 23.5
GRID     383            31.8925 1.72208 26.
GRID*    384                            31.55           1.77636-15
*       23.5
GRID*    385                            31.55           1.77636-15
*       26.
GRID     386            43.9029 3.25281 23.5
GRID     387            43.9029 3.25281 26.
GRID     388            42.0604 6.01041 23.5
GRID     389            42.0604 6.01041 26.
GRID     390            39.3028 7.85297 23.5
GRID     391            39.3028 7.85297 26.
GRID     392            36.05   8.5     23.5
GRID     393            36.05   8.5     26.
GRID     394            31.1279 8.5     23.5
GRID     395            31.1279 8.5     26.
GRID     396            41.8833  0.     23.5
GRID     397            41.8833  0.     26.
GRID     398            41.4393 2.23232 23.5
GRID     399            41.4393 2.23232 26.
GRID     400            43.2166  0.     23.5
GRID     401            43.2166  0.     26.
GRID     402            42.6711 2.74257 23.5
GRID     403            42.6711 2.74257 26.
GRID     404            40.1747 4.12479 23.5
GRID     405            40.1747 4.12479 26.
$ ... 22 like lines cut
GRID*    428                            30.2166         1.75905-15
*       23.5
GRID*    429                            30.2166         1.75905-15
*       26.
GRID*    430                            28.8833         1.74174-15
*       23.5
GRID*    431                            28.8833         1.74174-15
*       26.
GRID     432            36.05   12.125  16.
GRID     433            36.05   12.125  18.5
GRID     434            36.05   12.125  21.
GRID     435            36.05   15.75   16.
GRID     436            36.05   15.75   18.5
GRID     437            36.05   15.75   21.
GRID     438            36.05   19.375  16.
GRID     439            36.05   19.375  18.5
GRID     440            36.05   19.375  21.
GRID     441            36.05   23.     16.
GRID     442            36.05   23.     18.5
GRID     443            36.05   23.     21.
GRID     444            35.2888 26.8267 16.
GRID     445            35.2888 26.8267 18.5
GRID     446            35.2888 26.8267 21.
GRID     447            33.1221 30.07   16.
GRID     448            33.1221 30.07   18.5
GRID     449            33.1221 30.07   21.
GRID     450            29.8743 32.2398 16.
GRID     451            29.8743 32.2398 18.5
$ ... 16 like lines cut
GRID*    468                            8.43446-16      30.275
*       16.
GRID*    469                            8.43446-16      30.275
*       18.5
GRID*    470                            8.43446-16      30.275
*       21.
GRID     471            30.4465 13.2682 16.
GRID     472            30.4465 13.2682 18.5
GRID     473            30.4465 13.2682 21.
GRID     474            32.2475 16.6994 16.
GRID     475            32.2475 16.6994 18.5
GRID     476            32.2475 16.6994 21.
GRID     477            32.5385 19.9158 16.
GRID     478            32.5385 19.9158 18.5
GRID     479            32.5385 19.9158 21.
GRID     480            32.3782 23.2971 16.
GRID     481            32.3782 23.2971 18.5
GRID     482            32.3782 23.2971 21.
GRID     483            32.5576 26.1593 16.
GRID     484            32.5576 26.1593 18.5
GRID     485            32.5576 26.1593 21.
GRID     486            30.0204 28.3382 16.
GRID     487            30.0204 28.3382 18.5
GRID     488            30.0204 28.3382 21.
GRID     489            8.46516 29.1928 16.
GRID     490            8.46516 29.1928 18.5
$ ... 133 like lines cut
GRID*    624                            5.99521-15      25.
*       15.
GRID     625            4.996-1526.     15.
GRID*    626                            3.9968-15       27.
*       15.
GRID     627            28.      0.     15.
GRID     628            27.956  1.56997 15.
GRID     629            29.      0.     15.
GRID     630            28.9544 1.62604 15.
GRID     631            30.      0.     15.
GRID     632            29.9528 1.68211 15.
GRID     633            27.8239 3.13501 15.
GRID     634            28.8177 3.24697 15.
GRID     635            29.8114 3.35893 15.
GRID     636            27.6044 4.69017 15.
GRID     637            28.5903 4.85768 15.
GRID     638            29.5761 5.02519 15.
GRID     639            27.298  6.23059 15.
GRID     640            28.2729 6.45311 15.
GRID     641            29.2478 6.67563 15.
GRID     642            26.9057 7.75139 15.
GRID     643            27.8666 8.02823 15.
GRID     644            28.8275 8.30507 15.
GRID     645            26.4287 9.24781 15.
GRID     646            27.3726 9.57809 15.
$ ... 64 like lines cut
GRID*    711                            2.51651-15      28.
*       15.
GRID*    712                            1.03621-15      29.
*       15.
GRID*    713                            -4.44089-16     30.
*       15.
GRID     714            40.55    0.     15.
GRID     715            40.2074 1.72208 15.
GRID     716            41.8833  0.     15.
GRID     717            41.4393 2.23232 15.
GRID     718            43.2166  0.     15.
GRID     719            42.6711 2.74257 15.
GRID     720            44.55    0.     15.
GRID     721            43.9029 3.25281 15.
GRID     722            39.2319 3.18198 15.
GRID     723            40.1747 4.12479 15.
GRID     724            41.1176 5.0676  15.
GRID     725            42.0604 6.01041 15.
GRID     726            37.772  4.15746 15.
GRID     727            38.2823 5.3893  15.
GRID     728            38.7925 6.62114 15.
GRID     729            39.3028 7.85297 15.
GRID     730            36.05   4.5     15.
GRID     731            36.05   5.83333 15.
GRID     732            36.05   7.16667 15.
GRID     733            36.05   8.5     15.
GRID*    734                            31.55           5.51073-16
*       15.
GRID     735            31.892  1.72095 15.
GRID     736            32.8684 3.18244 15.
GRID     737            34.3279 4.15748 15.
GRID     738            36.05   9.95    15.
GRID     739            36.05   11.4    15.
GRID     740            36.05   12.85   15.
GRID     741            36.05   14.3    15.
GRID     742            36.05   15.75   15.
GRID     743            36.05   17.2    15.
GRID     744            36.05   18.65   15.
GRID     745            36.05   20.1    15.
GRID     746            36.05   21.55   15.
GRID     747            36.05   23.     15.
GRID     748            35.9279 24.5577 15.
GRID     749            35.5629 26.0828 15.
GRID     750            34.9637 27.5328 15.
GRID     751            34.1452 28.8709 15.
GRID     752            33.1274 30.0647 15.
GRID     753            31.935  31.085  15.
GRID     754            30.5972 31.9063 15.
$ ... 19 like lines cut
GRID*    774                            9.18455-16      31.5
*       15.
GRID     775            1.66202 31.4687 15.
GRID     776            31.14   3.67457 15.
GRID     777            32.1691 4.39629 15.
GRID     778            33.0542 5.18082 15.
GRID     779            3.30576 31.4218 15.
GRID     780            4.9268  31.4205 15.
GRID     781            6.43253 31.6617 15.
GRID     782            7.90262 31.6311 15.
GRID     783            9.51649 31.4463 15.
GRID     784            11.3967 31.1051 15.
GRID     785            13.161  31.4331 15.
GRID     786            14.7213 31.5576 15.
GRID     787            16.2582 31.5296 15.
GRID     788            17.8509 31.4479 15.
GRID     789            19.5042 31.3835 15.
GRID     790            21.1636 31.4172 15.
GRID     791            22.7769 31.4823 15.
GRID     792            24.3357 31.5297 15.
GRID     793            25.8404 31.5236 15.
GRID     794            27.2741 31.4061 15.
$ ... 261 like lines cut
GRID*    1056                           5.99521-15      25.
*       16.
GRID     1057           4.996-1526.     16.
GRID*    1058                           3.9968-15       27.
*       16.
GRID     1059           30.      0.     16.
GRID     1060           29.9528 1.68211 16.
GRID     1061           29.8114 3.35893 16.
GRID     1062           29.5761 5.02519 16.
GRID     1063           29.2478 6.67563 16.
GRID     1064           28.8275 8.30507 16.
GRID     1065           28.3165 9.90837 16.
GRID     1066           27.7164 11.4805 16.
GRID     1067           27.0291 13.0165 16.
GRID     1068           26.2567 14.5116 16.
GRID     1069           25.4017 15.961  16.
GRID     1070           24.4668 17.3601 16.
GRID     1071           23.4549 18.7047 16.
GRID     1072           22.3693 19.9904 16.
GRID     1073           21.2132 21.2132 16.
GRID     1074           19.9904 22.3693 16.
GRID     1075           18.7047 23.4549 16.
GRID     1076           17.3601 24.4668 16.
GRID     1077           15.961  25.4017 16.
GRID     1078           14.5116 26.2567 16.
$ ... 8 like lines cut
GRID*    1087                           -4.44089-16     30.
*       16.
GRID     1088           40.55    0.     16.
GRID     1089           40.2074 1.72208 16.
GRID     1090           41.8833  0.     16.
GRID     1091           41.4393 2.23232 16.
GRID     1092           43.2166  0.     16.
GRID     1093           42.6711 2.74257 16.
GRID     1094           44.55    0.     16.
GRID     1095           43.9029 3.25281 16.
GRID     1096           39.2319 3.18198 16.
GRID     1097           40.1747 4.12479 16.
GRID     1098           41.1176 5.0676  16.
GRID     1099           42.0604 6.01041 16.
GRID     1100           37.772  4.15746 16.
GRID     1101           38.2823 5.3893  16.
GRID     1102           38.7925 6.62114 16.
GRID     1103           39.3028 7.85297 16.
GRID     1104           36.05   4.5     16.
GRID     1105           36.05   5.83333 16.
GRID     1106           36.05   7.16667 16.
GRID     1107           36.05   8.5     16.
GRID*    1108                           31.55           5.51073-16
*       16.
GRID     1109           31.892  1.72095 16.
GRID     1110           32.8684 3.18244 16.
GRID     1111           34.3279 4.15748 16.
GRID     1112           36.05   9.95    16.
GRID     1113           36.05   11.4    16.
GRID     1114           36.05   12.85   16.
GRID     1115           36.05   14.3    16.
GRID     1116           36.05   15.75   16.
GRID     1117           36.05   17.2    16.
GRID     1118           36.05   18.65   16.
GRID     1119           36.05   20.1    16.
GRID     1120           36.05   21.55   16.
GRID     1121           36.05   23.     16.
GRID     1122           35.9279 24.5577 16.
GRID     1123           35.5629 26.0828 16.
GRID     1124           34.9637 27.5328 16.
GRID     1125           34.1452 28.8709 16.
GRID     1126           33.1274 30.0647 16.
GRID     1127           31.935  31.085  16.
GRID     1128           30.5972 31.9063 16.
$ ... 19 like lines cut
GRID*    1148                           9.18455-16      31.5
*       16.
GRID     1149           1.66202 31.4687 16.
GRID     1150           31.14   3.67457 16.
GRID     1151           32.1691 4.39629 16.
GRID     1152           33.0542 5.18082 16.
GRID     1153           3.30576 31.4218 16.
GRID     1154           4.9268  31.4205 16.
GRID     1155           6.43253 31.6617 16.
GRID     1156           7.90262 31.6311 16.
GRID     1157           9.51649 31.4463 16.
GRID     1158           11.3967 31.1051 16.
GRID     1159           13.161  31.4331 16.
GRID     1160           14.7213 31.5576 16.
GRID     1161           16.2582 31.5296 16.
GRID     1162           17.8509 31.4479 16.
GRID     1163           19.5042 31.3835 16.
GRID     1164           21.1636 31.4172 16.
GRID     1165           22.7769 31.4823 16.
GRID     1166           24.3357 31.5297 16.
GRID     1167           25.8404 31.5236 16.
GRID     1168           27.2741 31.4061 16.
$ ... 233 like lines cut
GRID*    1402                           2.51651-15      28.
*       16.
GRID*    1403                           1.03621-15      29.
*       16.
GRID     1404           23.707  3.73856  0.
GRID     1405           24.      0.      0.
GRID*    1406                           28.025          2.44921-16
*        0.
GRID*    1407                           32.05           4.89843-16
*        0.
GRID     1408           33.2215 2.82843  0.
GRID     1409           36.05   4.       0.
GRID     1410           38.8784 2.82843  0.
GRID     1411           40.05    0.      0.
GRID     1412           43.3     0.      0.
GRID     1413           46.55    0.      0.
GRID     1414           46.55   3.5      0.
GRID     1415           46.55   7.       0.
GRID     1416           46.55   10.5     0.
GRID     1417           46.55   14.      0.
GRID     1418           46.55   17.5     0.
GRID     1419           46.55   21.      0.
GRID     1420           46.55   24.5     0.
GRID     1421           46.55   28.      0.
GRID     1422           46.55   31.5     0.
GRID     1423           46.55   35.      0.
GRID     1424           42.6708 35.      0.
GRID     1425           38.7916 35.      0.
GRID     1426           34.9125 35.      0.
GRID     1427           31.0333 35.      0.
$ ... 8 like lines cut
GRID*    1436                           3.67382-16      32.25
*        0.
GRID*    1437                           7.34764-16      29.5
*        0.
GRID*    1438                           1.10215-15      26.75
*        0.
GRID*    1439                           1.46953-15      24.
*        0.
GRID     1440           3.77019 23.702   0.
GRID     1441           7.43318 22.8199  0.
GRID     1442           10.9134 21.3752  0.
GRID     1443           14.124  19.4039  0.
GRID     1444           16.9858 16.9553  0.
GRID     1445           19.4285 14.0901  0.
GRID     1446           21.3929 10.8786  0.
GRID     1447           22.8311 7.39871  0.
GRID     1448           3.7791  32.1847  0.
GRID     1449           3.82602 29.4389  0.
GRID     1450           4.45705 26.5354  0.
GRID     1451           28.1957 4.74286  0.
GRID     1452           42.9301 3.29697  0.
GRID     1453           42.9913 6.8702   0.
GRID     1454           43.0431 10.4117  0.
GRID     1455           43.0264 13.927   0.
GRID     1456           42.9704 17.4449  0.
GRID     1457           42.9233 20.9606  0.
GRID     1458           42.8732 24.4741  0.
GRID     1459           42.8165 27.9816  0.
$ ... 72 like lines cut
GRID*    1532                           28.025          2.44921-16
*       5.
GRID*    1533                           28.025          2.44921-16
*       10.
GRID*    1534                           28.025          2.44921-16
*       15.
GRID*    1535                           32.05           4.89843-16
*       5.
GRID*    1536                           32.05           4.89843-16
*       10.
GRID*    1537                           32.05           4.89843-16
*       15.
GRID     1538           33.2215 2.82843 5.
GRID     1539           33.2215 2.82843 10.
GRID     1540           33.2215 2.82843 15.
GRID     1541           36.05   4.      5.
GRID     1542           36.05   4.      10.
GRID     1543           36.05   4.      15.
GRID     1544           38.8784 2.82843 5.
GRID     1545           38.8784 2.82843 10.
GRID     1546           38.8784 2.82843 15.
GRID     1547           40.05    0.     5.
GRID     1548           40.05    0.     10.
GRID     1549           40.05    0.     15.
GRID     1550           43.3     0.     5.
GRID     1551           43.3     0.     10.
GRID     1552           43.3     0.     15.
GRID     1553           46.55    0.     5.
GRID     1554           46.55    0.     10.
GRID     1555           46.55    0.     15.
GRID     1556           46.55   3.5     5.
GRID     1557           46.55   3.5     10.
$ ... 64 like lines cut
GRID*    1622                           3.67382-16      32.25
*       5.
GRID*    1623                           3.67382-16      32.25
*       10.
GRID*    1624                           3.67382-16      32.25
*       15.
GRID*    1625                           7.34764-16      29.5
*       5.
GRID*    1626                           7.34764-16      29.5
*       10.
GRID*    1627                           7.34764-16      29.5
*       15.
GRID*    1628                           1.10215-15      26.75
*       5.
GRID*    1629                           1.10215-15      26.75
*       10.
GRID*    1630                           1.10215-15      26.75
*       15.
GRID*    1631                           1.46953-15      24.
*       5.
GRID*    1632                           1.46953-15      24.
*       10.
GRID*    1633                           1.46953-15      24.
*       15.
GRID     1634           3.77019 23.702  5.
GRID     1635           3.77019 23.702  10.
GRID     1636           3.77019 23.702  15.
GRID     1637           7.43318 22.8199 5.
GRID     1638           7.43318 22.8199 10.
GRID     1639           7.43318 22.8199 15.
GRID     1640           10.9134 21.3752 5.
GRID     1641           10.9134 21.3752 10.
GRID     1642           10.9134 21.3752 15.
GRID     1643           14.124  19.4039 5.
GRID     1644           14.124  19.4039 10.
GRID     1645           14.124  19.4039 15.
GRID     1646           16.9858 16.9553 5.
GRID     1647           16.9858 16.9553 10.
GRID     1648           16.9858 16.9553 15.
GRID     1649           19.4285 14.0901 5.
GRID     1650           19.4285 14.0901 10.
GRID     1651           19.4285 14.0901 15.
GRID     1652           21.3929 10.8786 5.
GRID     1653           21.3929 10.8786 10.
$ ... 238 like lines cut
GRID*    1892                           34.05           3.67382-16
*        0.
GRID*    1893                           36.05           2.44921-16
*        0.
GRID*    1894                           38.05           1.22461-16
*        0.
GRID     1895           34.4352 1.52215  0.
GRID     1896           36.0473 1.76108  0.
GRID     1897           37.6586 1.52984  0.
GRID*    1898                           34.05           3.67382-16
*       5.
GRID*    1899                           34.05           3.67382-16
*       10.
GRID*    1900                           34.05           3.67382-16
*       15.
GRID*    1901                           36.05           2.44921-16
*       5.
GRID*    1902                           36.05           2.44921-16
*       10.
GRID*    1903                           36.05           2.44921-16
*       15.
GRID*    1904                           38.05           1.22461-16
*       5.
GRID*    1905                           38.05           1.22461-16
*       10.
GRID*    1906                           38.05           1.22461-16
*       15.
GRID     1907           34.4352 1.52215 5.
GRID     1908           34.4352 1.52215 10.
GRID     1909           34.4352 1.52215 15.
GRID     1910           36.0473 1.76108 5.
GRID     1911           36.0473 1.76108 10.
GRID     1912           36.0473 1.76108 15.
GRID     1913           37.6586 1.52984 5.
GRID     1914           37.6586 1.52984 10.
GRID     1915           37.6586 1.52984 15.
GRID     1916           40.05    0.     16.8333
GRID     1917           40.05    0.     18.6667
GRID     1918           40.05    0.     20.5     2
GRID     1919           40.05    0.     22.3333
GRID     1920           40.05    0.     24.1667
GRID     1921           40.05    0.     26.
GRID     1922           38.8784 2.82843 16.8333
GRID     1923           38.8784 2.82843 18.6667
GRID     1924           38.8784 2.82843 20.5     2
GRID     1925           38.8784 2.82843 22.3333
GRID     1926           38.8784 2.82843 24.1667
$ ... 13 like lines cut
GRID*    1940                           32.05           4.89843-16
*       16.8333
GRID*    1941                           32.05           4.89843-16
*       18.6667
GRID*    1942                           32.05           4.89843-16
*       20.5             2
GRID*    1943                           32.05           4.89843-16
*       22.3333
GRID*    1944                           32.05           4.89843-16
*       24.1667
GRID*    1945                           32.05           4.89843-16
*       26.
GRID*    1946                           34.05           3.67382-16
*       16.8333
GRID*    1947                           34.05           3.67382-16
*       18.6667
GRID*    1948                           34.05           3.67382-16
*       20.5             2
GRID*    1949                           34.05           3.67382-16
*       22.3333
GRID*    1950                           34.05           3.67382-16
*       24.1667
GRID*    1951                           34.05           3.67382-16
*       26.
GRID*    1952                           36.05           2.44921-16
*       16.8333
GRID*    1953                           36.05           2.44921-16
*       18.6667
GRID*    1954                           36.05           2.44921-16
*       20.5             2
GRID*    1955                           36.05           2.44921-16
*       22.3333
GRID*    1956                           36.05           2.44921-16
*       24.1667
GRID*    1957                           36.05           2.44921-16
*       26.
GRID*    1958                           38.05           1.22461-16
*       16.8333
GRID*    1959                           38.05           1.22461-16
*       18.6667
$ ... 8 like lines cut
GRID     1964           34.4352 1.52215 16.8333
GRID     1965           34.4352 1.52215 18.6667
GRID     1966           34.4352 1.52215 20.5     2
GRID     1967           34.4352 1.52215 22.3333
GRID     1968           34.4352 1.52215 24.1667
GRID     1969           34.4352 1.52215 26.
GRID     1970           36.0473 1.76108 16.8333
GRID     1971           36.0473 1.76108 18.6667
GRID     1972           36.0473 1.76108 20.5     2
GRID     1973           36.0473 1.76108 22.3333
GRID     1974           36.0473 1.76108 24.1667
GRID     1975           36.0473 1.76108 26.
GRID     1976           37.6586 1.52984 16.8333
GRID     1977           37.6586 1.52984 18.6667
GRID     1978           37.6586 1.52984 20.5     2
GRID     1979           37.6586 1.52984 22.3333
GRID     1980           37.6586 1.52984 24.1667
GRID     1981           37.6586 1.52984 26.
GRID     1982           40.05    0.     28.
GRID     1983           40.05    0.     30.
$ ... 10 like lines cut
GRID*    1994                           32.05           4.89843-16
*       28.
GRID*    1995                           32.05           4.89843-16
*       30.
GRID*    1996                           32.05           4.89843-16
*       32.
GRID*    1997                           34.05           3.67382-16
*       28.
GRID*    1998                           34.05           3.67382-16
*       30.
GRID*    1999                           34.05           3.67382-16
*       32.
GRID*    2000                           36.05           2.44921-16
*       28.
GRID*    2001                           36.05           2.44921-16
*       30.
GRID*    2002                           36.05           2.44921-16
*       32.
GRID*    2003                           38.05           1.22461-16
*       28.
GRID*    2004                           38.05           1.22461-16
*       30.
GRID*    2005                           38.05           1.22461-16
*       32.
GRID     2006           34.4352 1.52215 28.
GRID     2007           34.4352 1.52215 30.
GRID     2008           34.4352 1.52215 32.
GRID     2009           36.0473 1.76108 28.
GRID     2010           36.0473 1.76108 30.
GRID     2011           36.0473 1.76108 32.
GRID     2012           37.6586 1.52984 28.
GRID     2013           37.6586 1.52984 30.
GRID     2014           37.6586 1.52984 32.
GRID     2015           40.8702  0.     26.
GRID     2016           41.8587  0.     26.
GRID     2017           43.05    0.     26.
GRID     2018           39.4584 3.40846 26.
GRID     2019           40.1574 4.10743 26.
GRID     2020           40.9997 4.94975 26.
GRID     2021           36.05   4.82028 26.
GRID     2022           36.05   5.80879 26.
GRID     2023           36.05   7.      26.
GRID     2024           32.6415 3.40846 26.
GRID     2025           31.9425 4.10743 26.
GRID     2026           31.1002 4.94975 26.
GRID*    2027                           31.2297         5.90295-16
*       26.
GRID*    2028                           30.2412         7.11348-16
*       26.
GRID*    2029                           29.05           8.57225-16
*       26.
GRID     2030           40.8702  0.     28.
GRID     2031           41.8587  0.     28.
GRID     2032           43.05    0.     28.
GRID     2033           40.8702  0.     30.
GRID     2034           41.8587  0.     30.
GRID     2035           43.05    0.     30.
GRID     2036           40.8702  0.     32.
GRID     2037           41.8587  0.     32.
GRID     2038           43.05    0.     32.
GRID     2039           39.4584 3.40846 28.
GRID     2040           40.1574 4.10743 28.
GRID     2041           40.9997 4.94975 28.
GRID     2042           39.4584 3.40846 30.
GRID     2043           40.1574 4.10743 30.
GRID     2044           40.9997 4.94975 30.
GRID     2045           39.4584 3.40846 32.
GRID     2046           40.1574 4.10743 32.
GRID     2047           40.9997 4.94975 32.
GRID     2048           36.05   4.82028 28.
GRID     2049           36.05   5.80879 28.
$ ... 16 like lines cut
GRID*    2066                           31.2297         5.90295-16
*       28.
GRID*    2067                           30.2412         7.11348-16
*       28.
GRID*    2068                           29.05           8.57225-16
*       28.
GRID*    2069                           31.2297         5.90295-16
*       30.
GRID*    2070                           30.2412         7.11348-16
*       30.
GRID*    2071                           29.05           8.57225-16
*       30.
GRID*    2072                           31.2297         5.90295-16
*       32.
GRID*    2073                           30.2412         7.11348-16
*       32.
GRID*    2074                           29.05           8.57225-16
*       32.
GRID     2075           -25.     0.     16.
GRID     2076           -24.69323.90455 16.
GRID     2077           -23.78047.71326 16.
GRID     2078           -24.8993 0.     18.2412
GRID     2079           -24.59383.88882 18.2412
GRID     2080           -23.68467.68221 18.2412
GRID     2081           -24.5982 0.     20.4643
GRID     2082           -24.29633.84179 20.4643
GRID     2083           -23.39817.58929 20.4643
GRID     2084           -27.55   0.     16.
GRID     2085           -27.21194.3028  16.
GRID     2086           -26.20598.5     16.
GRID     2087           -27.55   0.     18.5
GRID     2088           -27.21194.3028  18.5
GRID     2089           -26.20598.5     18.5
GRID     2090           -27.55   0.     21.
GRID     2091           -27.21194.3028  21.
GRID     2092           -26.20598.5     21.
GRID     2093           -24.0784 0.     22.7254
GRID     2094           -23.78293.76061 22.7254
$ ... 247 like lines cut
GRID*    2342                           -31.55          1.77636-15
*       16.
GRID*    2343                           -31.55          1.77636-15
*       18.5
GRID*    2344                           -31.55          1.77636-15
*       21.
GRID     2345           -43.90293.25281 16.
GRID     2346           -43.90293.25281 18.5
GRID     2347           -43.90293.25281 21.
GRID     2348           -42.06046.01041 16.
GRID     2349           -42.06046.01041 18.5
GRID     2350           -42.06046.01041 21.
GRID     2351           -39.30287.85297 16.
GRID     2352           -39.30287.85297 18.5
GRID     2353           -39.30287.85297 21.
GRID     2354           -36.05  8.5     16.
GRID     2355           -36.05  8.5     18.5
GRID     2356           -36.05  8.5     21.
GRID     2357           -31.12798.5     16.
GRID     2358           -31.12798.5     18.5
GRID     2359           -31.12798.5     21.
GRID     2360           -41.8833 0.     16.
GRID     2361           -41.8833 0.     18.5
GRID     2362           -41.8833 0.     21.
GRID     2363           -41.43932.23232 16.
GRID     2364           -41.43932.23232 18.5
$ ... 43 like lines cut
GRID*    2408                           -30.2166        1.75905-15
*       16.
GRID*    2409                           -30.2166        1.75905-15
*       18.5
GRID*    2410                           -30.2166        1.75905-15
*       21.
GRID*    2411                           -28.8833        1.74174-15
*       16.
GRID*    2412                           -28.8833        1.74174-15
*       18.5
GRID*    2413                           -28.8833        1.74174-15
*       21.
GRID     2414           -40.55   0.     23.5
GRID     2415           -40.55   0.     26.
GRID     2416           -44.55   0.     23.5
GRID     2417           -44.55   0.     26.
GRID     2418           -40.20741.72208 23.5
GRID     2419           -40.20741.72208 26.
GRID     2420           -39.23193.18198 23.5
GRID     2421           -39.23193.18198 26.
GRID     2422           -37.772 4.15746 23.5
GRID     2423           -37.772 4.15746 26.
GRID     2424           -36.05  4.5     23.5
GRID     2425           -36.05  4.5     26.
GRID     2426           -34.32794.15746 23.5
GRID     2427           -34.32794.15746 26.
GRID     2428           -32.868 3.18198 23.5
GRID     2429           -32.868 3.18198 26.
GRID     2430           -31.89251.72208 23.5
GRID     2431           -31.89251.72208 26.
GRID*    2432                           -31.55          1.77636-15
*       23.5
GRID*    2433                           -31.55          1.77636-15
*       26.
GRID     2434           -43.90293.25281 23.5
GRID     2435           -43.90293.25281 26.
GRID     2436           -42.06046.01041 23.5
GRID     2437           -42.06046.01041 26.
GRID     2438           -39.30287.85297 23.5
GRID     2439           -39.30287.85297 26.
GRID     2440           -36.05  8.5     23.5
GRID     2441           -36.05  8.5     26.
GRID     2442           -31.12798.5     23.5
GRID     2443           -31.12798.5     26.
GRID     2444           -41.8833 0.     23.5
GRID     2445           -41.8833 0.     26.
GRID     2446           -41.43932.23232 23.5
GRID     2447           -41.43932.23232 26.
GRID     2448           -43.2166 0.     23.5
GRID     2449           -43.2166 0.     26.
GRID     2450           -42.67112.74257 23.5
GRID     2451           -42.67112.74257 26.
GRID     2452           -40.17474.12479 23.5
GRID     2453           -40.17474.12479 26.
$ ... 22 like lines cut
GRID*    2476                           -30.2166        1.75905-15
*       23.5
GRID*    2477                           -30.2166        1.75905-15
*       26.
GRID*    2478                           -28.8833        1.74174-15
*       23.5
GRID*    2479                           -28.8833        1.74174-15
*       26.
GRID     2480           -36.05  12.125  16.
GRID     2481           -36.05  12.125  18.5
GRID     2482           -36.05  12.125  21.
GRID     2483           -36.05  15.75   16.
GRID     2484           -36.05  15.75   18.5
GRID     2485           -36.05  15.75   21.
GRID     2486           -36.05  19.375  16.
GRID     2487           -36.05  19.375  18.5
GRID     2488           -36.05  19.375  21.
GRID     2489           -36.05  23.     16.
GRID     2490           -36.05  23.     18.5
GRID     2491           -36.05  23.     21.
GRID     2492           -35.288826.8267 16.
GRID     2493           -35.288826.8267 18.5
GRID     2494           -35.288826.8267 21.
GRID     2495           -33.122130.07   16.
GRID     2496           -33.122130.07   18.5
GRID     2497           -33.122130.07   21.
GRID     2498           -29.874332.2398 16.
GRID     2499           -29.874332.2398 18.5
$ ... 270 like lines cut
GRID*    2770                           -31.55          5.51073-16
*       15.
GRID     2771           -31.892 1.72095 15.
GRID     2772           -32.86843.18244 15.
GRID     2773           -34.32794.15748 15.
GRID     2774           -36.05  9.95    15.
GRID     2775           -36.05  11.4    15.
GRID     2776           -36.05  12.85   15.
GRID     2777           -36.05  14.3    15.
GRID     2778           -36.05  15.75   15.
GRID     2779           -36.05  17.2    15.
GRID     2780           -36.05  18.65   15.
GRID     2781           -36.05  20.1    15.
GRID     2782           -36.05  21.55   15.
GRID     2783           -36.05  23.     15.
GRID     2784           -35.927924.5577 15.
GRID     2785           -35.562926.0828 15.
GRID     2786           -34.963727.5328 15.
GRID     2787           -34.145228.8709 15.
GRID     2788           -33.127430.0647 15.
GRID     2789           -31.935 31.085  15.
GRID     2790           -30.597231.9063 15.
$ ... 347 like lines cut
GRID*    3138                           -31.55          5.51073-16
*       16.
GRID     3139           -31.892 1.72095 16.
GRID     3140           -32.86843.18244 16.
GRID     3141           -34.32794.15748 16.
GRID     3142           -36.05  9.95    16.
GRID     3143           -36.05  11.4    16.
GRID     3144           -36.05  12.85   16.
GRID     3145           -36.05  14.3    16.
GRID     3146           -36.05  15.75   16.
GRID     3147           -36.05  17.2    16.
GRID     3148           -36.05  18.65   16.
GRID     3149           -36.05  20.1    16.
GRID     3150           -36.05  21.55   16.
GRID     3151           -36.05  23.     16.
GRID     3152           -35.927924.5577 16.
GRID     3153           -35.562926.0828 16.
GRID     3154           -34.963727.5328 16.
GRID     3155           -34.145228.8709 16.
GRID     3156           -33.127430.0647 16.
GRID     3157           -31.935 31.085  16.
GRID     3158           -30.597231.9063 16.
$ ... 273 like lines cut
GRID*    3432                           -28.025         2.44921-16
*        0.
GRID*    3433                           -32.05          4.89843-16
*        0.
GRID     3434           -33.22152.82843  0.
GRID     3435           -36.05  4.       0.
GRID     3436           -38.87842.82843  0.
GRID     3437           -40.05   0.      0.
GRID     3438           -43.3    0.      0.
GRID     3439           -46.55   0.      0.
GRID     3440           -46.55  3.5      0.
GRID     3441           -46.55  7.       0.
GRID     3442           -46.55  10.5     0.
GRID     3443           -46.55  14.      0.
GRID     3444           -46.55  17.5     0.
GRID     3445           -46.55  21.      0.
GRID     3446           -46.55  24.5     0.
GRID     3447           -46.55  28.      0.
GRID     3448           -46.55  31.5     0.
GRID     3449           -46.55  35.      0.
GRID     3450           -42.670835.      0.
GRID     3451           -38.791635.      0.
GRID     3452           -34.912535.      0.
GRID     3453           -31.033335.      0.
$ ... 99 like lines cut
GRID*    3553                           -28.025         2.44921-16
*       5.
GRID*    3554                           -28.025         2.44921-16
*       10.
GRID*    3555                           -28.025         2.44921-16
*       15.
GRID*    3556                           -32.05          4.89843-16
*       5.
GRID*    3557                           -32.05          4.89843-16
*       10.
GRID*    3558                           -32.05          4.89843-16
*       15.
GRID     3559           -33.22152.82843 5.
GRID     3560           -33.22152.82843 10.
GRID     3561           -33.22152.82843 15.
GRID     3562           -36.05  4.      5.
GRID     3563           -36.05  4.      10.
GRID     3564           -36.05  4.      15.
GRID     3565           -38.87842.82843 5.
GRID     3566           -38.87842.82843 10.
GRID     3567           -38.87842.82843 15.
GRID     3568           -40.05   0.     5.
GRID     3569           -40.05   0.     10.
GRID     3570           -40.05   0.     15.
GRID     3571           -43.3    0.     5.
GRID     3572           -43.3    0.     10.
GRID     3573           -43.3    0.     15.
GRID     3574           -46.55   0.     5.
GRID     3575           -46.55   0.     10.
GRID     3576           -46.55   0.     15.
GRID     3577           -46.55  3.5     5.
GRID     3578           -46.55  3.5     10.
$ ... 319 like lines cut
GRID*    3898                           -34.05          3.67382-16
*        0.
GRID*    3899                           -36.05          2.44921-16
*        0.
GRID*    3900                           -38.05          1.22461-16
*        0.
GRID     3901           -34.43521.52215  0.
GRID     3902           -36.04731.76108  0.
GRID     3903           -37.65861.52984  0.
GRID*    3904                           -34.05          3.67382-16
*       5.
GRID*    3905                           -34.05          3.67382-16
*       10.
GRID*    3906                           -34.05          3.67382-16
*       15.
GRID*    3907                           -36.05          2.44921-16
*       5.
GRID*    3908                           -36.05          2.44921-16
*       10.
GRID*    3909                           -36.05          2.44921-16
*       15.
GRID*    3910                           -38.05          1.22461-16
*       5.
GRID*    3911                           -38.05          1.22461-16
*       10.
GRID*    3912                           -38.05          1.22461-16
*       15.
GRID     3913           -34.43521.52215 5.
GRID     3914           -34.43521.52215 10.
GRID     3915           -34.43521.52215 15.
GRID     3916           -36.04731.76108 5.
GRID     3917           -36.04731.76108 10.
GRID     3918           -36.04731.76108 15.
GRID     3919           -37.65861.52984 5.
GRID     3920           -37.65861.52984 10.
GRID     3921           -37.65861.52984 15.
GRID     3922           -40.05   0.     16.8333
GRID     3923           -40.05   0.     18.6667
GRID     3924           -40.05   0.     20.5     1
GRID     3925           -40.05   0.     22.3333
GRID     3926           -40.05   0.     24.1667
GRID     3927           -40.05   0.     26.
GRID     3928           -38.87842.82843 16.8333
GRID     3929           -38.87842.82843 18.6667
GRID     3930           -38.87842.82843 20.5     1
GRID     3931           -38.87842.82843 22.3333
GRID     3932           -38.87842.82843 24.1667
$ ... 13 like lines cut
GRID*    3946                           -32.05          4.89843-16
*       16.8333
GRID*    3947                           -32.05          4.89843-16
*       18.6667
GRID*    3948                           -32.05          4.89843-16
*       20.5             1
GRID*    3949                           -32.05          4.89843-16
*       22.3333
GRID*    3950                           -32.05          4.89843-16
*       24.1667
GRID*    3951                           -32.05          4.89843-16
*       26.
GRID*    3952                           -34.05          3.67382-16
*       16.8333
GRID*    3953                           -34.05          3.67382-16
*       18.6667
GRID*    3954                           -34.05          3.67382-16
*       20.5             1
GRID*    3955                           -34.05          3.67382-16
*       22.3333
GRID*    3956                           -34.05          3.67382-16
*       24.1667
GRID*    3957                           -34.05          3.67382-16
*       26.
GRID*    3958                           -36.05          2.44921-16
*       16.8333
GRID*    3959                           -36.05          2.44921-16
*       18.6667
GRID*    3960                           -36.05          2.44921-16
*       20.5             1
GRID*    3961                           -36.05          2.44921-16
*       22.3333
GRID*    3962                           -36.05          2.44921-16
*       24.1667
GRID*    3963                           -36.05          2.44921-16
*       26.
GRID*    3964                           -38.05          1.22461-16
*       16.8333
GRID*    3965                           -38.05          1.22461-16
*       18.6667
$ ... 8 like lines cut
GRID     3970           -34.43521.52215 16.8333
GRID     3971           -34.43521.52215 18.6667
GRID     3972           -34.43521.52215 20.5     1
GRID     3973           -34.43521.52215 22.3333
GRID     3974           -34.43521.52215 24.1667
GRID     3975           -34.43521.52215 26.
GRID     3976           -36.04731.76108 16.8333
GRID     3977           -36.04731.76108 18.6667
GRID     3978           -36.04731.76108 20.5     1
GRID     3979           -36.04731.76108 22.3333
GRID     3980           -36.04731.76108 24.1667
GRID     3981           -36.04731.76108 26.
GRID     3982           -37.65861.52984 16.8333
GRID     3983           -37.65861.52984 18.6667
GRID     3984           -37.65861.52984 20.5     1
GRID     3985           -37.65861.52984 22.3333
GRID     3986           -37.65861.52984 24.1667
GRID     3987           -37.65861.52984 26.
GRID     3988           -40.05   0.     28.
GRID     3989           -40.05   0.     30.
$ ... 10 like lines cut
GRID*    4000                           -32.05          4.89843-16
*       28.
GRID*    4001                           -32.05          4.89843-16
*       30.
GRID*    4002                           -32.05          4.89843-16
*       32.
GRID*    4003                           -34.05          3.67382-16
*       28.
GRID*    4004                           -34.05          3.67382-16
*       30.
GRID*    4005                           -34.05          3.67382-16
*       32.
GRID*    4006                           -36.05          2.44921-16
*       28.
GRID*    4007                           -36.05          2.44921-16
*       30.
GRID*    4008                           -36.05          2.44921-16
*       32.
GRID*    4009                           -38.05          1.22461-16
*       28.
GRID*    4010                           -38.05          1.22461-16
*       30.
GRID*    4011                           -38.05          1.22461-16
*       32.
GRID     4012           -34.43521.52215 28.
GRID     4013           -34.43521.52215 30.
GRID     4014           -34.43521.52215 32.
GRID     4015           -36.04731.76108 28.
GRID     4016           -36.04731.76108 30.
GRID     4017           -36.04731.76108 32.
GRID     4018           -37.65861.52984 28.
GRID     4019           -37.65861.52984 30.
GRID     4020           -37.65861.52984 32.
GRID     4021           -40.8702 0.     26.
GRID     4022           -41.8587 0.     26.
GRID     4023           -43.05   0.     26.
GRID     4024           -39.45843.40846 26.
GRID     4025           -40.15744.10743 26.
GRID     4026           -40.99974.94975 26.
GRID     4027           -36.05  4.82028 26.
GRID     4028           -36.05  5.80879 26.
GRID     4029           -36.05  7.      26.
GRID     4030           -32.64153.40846 26.
GRID     4031           -31.94254.10743 26.
GRID     4032           -31.10024.94975 26.
GRID*    4033                           -31.2297        5.90295-16
*       26.
GRID*    4034                           -30.2412        7.11348-16
*       26.
GRID*    4035                           -29.05          8.57225-16
*       26.
GRID     4036           -40.8702 0.     28.
GRID     4037           -41.8587 0.     28.
GRID     4038           -43.05   0.     28.
GRID     4039           -40.8702 0.     30.
GRID     4040           -41.8587 0.     30.
GRID     4041           -43.05   0.     30.
GRID     4042           -40.8702 0.     32.
GRID     4043           -41.8587 0.     32.
GRID     4044           -43.05   0.     32.
GRID     4045           -39.45843.40846 28.
GRID     4046           -40.15744.10743 28.
GRID     4047           -40.99974.94975 28.
GRID     4048           -39.45843.40846 30.
GRID     4049           -40.15744.10743 30.
GRID     4050           -40.99974.94975 30.
GRID     4051           -39.45843.40846 32.
GRID     4052           -40.15744.10743 32.
GRID     4053           -40.99974.94975 32.
GRID     4054           -36.05  4.82028 28.
GRID     4055           -36.05  5.80879 28.
$ ... 16 like lines cut
GRID*    4072                           -31.2297        5.90295-16
*       28.
GRID*    4073                           -30.2412        7.11348-16
*       28.
GRID*    4074                           -29.05          8.57225-16
*       28.
GRID*    4075                           -31.2297        5.90295-16
*       30.
GRID*    4076                           -30.2412        7.11348-16
*       30.
GRID*    4077                           -29.05          8.57225-16
*       30.
GRID*    4078                           -31.2297        5.90295-16
*       32.
GRID*    4079                           -30.2412        7.11348-16
*       32.
GRID*    4080                           -29.05          8.57225-16
*       32.
GRID     4081           -36.05   0.     40.
GRID     4082           36.05    0.     40.
GRID     4083           -36.04921.31545 20.515   1
GRID     4084           -40.05   0.     20.5     1
GRID     4085           -38.87842.82843 20.5     1
GRID     4086           -36.05  4.      20.5     1
GRID     4087           -33.22152.82843 20.5     1
GRID*    4088                           -32.05          4.89843-16
*       20.5             1
GRID*    4089                           -34.05          3.67382-16
*       20.5             1
GRID*    4090                           -36.05          2.44921-16
*       20.5             1
GRID*    4091                           -38.05          1.22461-16
*       20.5             1
GRID     4092           -34.43521.52215 20.5     1
GRID     4093           -36.04731.76108 20.5     1
GRID     4094           -37.65861.52984 20.5     1
GRID     4095           36.0492 1.31545 20.515   2
GRID     4096           40.05    0.     20.5     2
GRID     4097           38.8784 2.82843 20.5     2
GRID     4098           36.05   4.      20.5     2
GRID     4099           33.2215 2.82843 20.5     2
GRID*    4100                           32.05           4.89843-16
*       20.5             2
GRID*    4101                           34.05           3.67382-16
*       20.5             2
GRID*    4102                           36.05           2.44921-16
*       20.5             2
GRID*    4103                           38.05           1.22461-16
*       20.5             2
GRID     4104           34.4352 1.52215 20.5     2
GRID     4105           36.0473 1.76108 20.5     2
GRID     4106           37.6586 1.52984 20.5     2
$ Loads for Load Case : Default
SPCADD   2       1       3       4       5       6       7
$ Enforced Displacements for Load Set : Displacement_bolt_load_4083
$ Dummy Force Required to Activate the Following Enforced Displacements
FORCE    1       4083            0.     .57735  .57735  .57735
SPCD     1       4083    2      .175
$ Enforced Displacements for Load Set : Displacement_bolt_load_4095
$ Dummy Force Required to Activate the Following Enforced Displacements
FORCE    1       4095            0.     .57735  .57735  .57735
SPCD     1       4095    2      .175
$ Displacement Constraints of Load Set : FixBottom
SPC1     1       123     1404    THRU    1525
SPC1     1       123     1892    1893    1894    1895    1896    1897
SPC1     1       123     3430    THRU    3546
SPC1     1       123     3898    3899    3900    3901    3902    3903
$ Displacement Constraints of Load Set : Symmetry
SPC1     3       2       1
SPC1     3       2       4
SPC1     3       2       7
SPC1     3       2       10
SPC1     3       2       13
SPC1     3       2       16
SPC1     3       2       19
SPC1     3       2       22
SPC1     3       2       25
SPC1     3       2       28
SPC1     3       2       31
SPC1     3       2       34
SPC1     3       2       37
SPC1     3       2       40
SPC1     3       2       43
SPC1     3       2       46
SPC1     3       2       49
SPC1     3       2       52
SPC1     3       2       53
SPC1     3       2       56
$ ... 354 like lines cut
$ Displacement Constraints of Load Set : Displacement_bolt_load_4083
SPC1     4       2       4083
$ Displacement Constraints of Load Set : CN_4083_bolt_lateral_disp
SPC1     5       13      4083
$ Displacement Constraints of Load Set : Displacement_bolt_load_4095
SPC1     6       2       4095
$ Displacement Constraints of Load Set : CN_4095_bolt_lateral_disp
SPC1     7       13      4095
$ Deform Body Contact LBC set: Block
BCBODY   7       3D      DEFORM  7       2
BSURF    7       670     671     672     673     674     675     676
         677     678     679     680     681     682     683     684
         685     686     687     688     689     690     691     692
         693     694     695     696     697     698     699     700
         701     702     703     704     705     706     707     708
         709     710     711     712     713     714     715     716
         717     718     719     720     721     722     723     724
         725     726     727     728     729     730     731     732
         733     734     735     736     737     738     739     740
         741     742     743     744     745     746     747     748
         749     750     751     752     753     754     755     756
         757     758     759     760     761     762     763     764
         765     766     767     768     769     770     771     772
         773     774     775     776     777     778     779     780
         781     782     783     784     785     786     787     788
         789     790     791     792     793     794     795     796
         797     798     799     800     801     802     803     804
         805     806     807     808     809     810     811     812
         813     814     815     816     817     818     819     820
         821     822     823     824     825     826     827     828
         829     830     831     832     833     834     835     836
$ ... 54 like lines cut
$ Deform Body Contact LBC set: Gasket
BCBODY   8       3D      DEFORM  8       2
BSURF    8       285     286     287     288     289     290     291
         292     293     294     295     296     297     298     299
         300     301     302     303     304     305     306     307
         308     309     310     311     312     313     314     315
         316     317     318     319     320     321     322     323
         324     325     326     327     328     329     330     331
         332     333     334     335     336     337     338     339
         340     341     342     343     344     345     346     347
         348     349     350     351     352     353     354     355
         356     357     358     359     360     361     362     363
         364     365     366     367     368     369     370     371
         372     373     374     375     376     377     378     379
         380     381     382     383     384     385     386     387
         388     389     390     391     392     393     394     395
         396     397     398     399     400     401     402     403
         404     405     406     407     408     409     410     411
         412     413     414     415     416     417     418     419
         420     421     422     423     424     425     426     427
         428     429     430     431     432     433     434     435
         436     437     438     439     440     441     442     443
         444     445     446     447     448     449     450     451
$ ... 76 like lines cut
$ Deform Body Contact LBC set: Head
BCBODY   9       3D      DEFORM  9       2
BSURF    9       1       2       3       4       5       6       7
         8       9       10      11      12      13      14      15
         16      17      18      19      20      21      22      25
         26      27      28      29      30      31      32      33
         34      35      36      37      38      39      40      41
         42      43      44      45      46      47      48      49
         50      51      52      53      54      55      56      57
         58      59      60      61      62      63      64      65
         66      67      68      69      70      71      72      73
         74      75      76      77      78      79      80      81
         82      83      84      85      86      87      88      89
         90      91      92      93      94      95      96      97
         98      99      100     101     102     103     104     105
         106     107     108     109     110     111     112     121
         122     123     124     125     126     127     128     129
         130     131     132     133     134     135     136     137
         138     139     140     141     142     143     144     145
         146     147     148     149     150     151     152     153
         154     155     156     157     158     159     160     161
         162     163     164     165     166     167     168     169
         170     171     172     173     174     175     176     177
$ ... 51 like lines cut
$ Deform Body Contact LBC set: Bolts
BCBODY   10      3D      DEFORM  10      2
BSURF    10      967     968     969     970     971     972     973
         974     975     976     977     978     979     980     981
         982     983     984     985     986     987     988     989
         990     991     992     993     994     995     996     997
         998     999     1000    1001    1002    1003    1004    1005
         1006    1007    1008    1009    1010    1011    1012    1013
         1014    1015    1016    1017    1018    1019    1020    1021
         1022    1023    1024    1025    1026    1027    1028    1029
         1030    1031    1032    1033    1034    1035    1036    1037
         1038    1039    1040    1041    1042    1043    1044    1045
         1046    1047    1048    1049    1050    1051    1052    1053
         1054    1055    1056    1057    1058    1059    1060    1061
         1062    1063    1064    1065    1066    1067    1068    1069
         1070    1071    1072    1073    1074    2041    2042    2043
         2044    2045    2046    2047    2048    2049    2050    2051
         2052    2053    2054    2055    2056    2057    2058    2059
         2060    2061    2062    2063    2064    2065    2066    2067
         2068    2069    2070    2071    2072    2073    2074    2075
         2076    2077    2078    2079    2080    2081    2082    2083
         2084    2085    2086    2087    2088    2089    2090    2091
         2092    2093    2094    2095    2096    2097    2098    2099
$ ... 7 like lines cut
$ Referenced Coordinate Frames
CORD2R   1              -36.04921.31545 20.515  -36.0492-40.183220.515
        5.44948 1.31545 20.515
CORD2R   2              36.0492 1.31545 20.515  36.0492 -40.183220.515
        77.5479 1.31545 20.515
ENDDATA 1d4f8507
