$ MeshTriaLin.bdf
ID MeshTriaLin.bdf,NASTRAN
SOL 101
APP   DISP
TIME  10000
CEND
SET 157 = 1,2,3,4,5,6,7,
8,9,10,11,12,13,14,15,
16,17,18,19,20,21,22,23,
24,25,26,27,28,29,30,31,
32,33,34,35,36,37,38,39,
40,41,42,43,44,45,46,47,
48,49,50,51,52,53,54,55,
56,57,58,59,60 $ Display nodegroup for : ConstraintSet<SPC>{original_id=1}
SET 158 = 3,4 $ DISP
SET 156 = 1,2,3,4,5,6,7,
8,9,10,11,12,13,14,15,
16,17,18,19,20,21,22,23,
24,25,26,27,28,29,30,31,
32,33,34,35,36,37,38,39,
40,41,42,43,44,45,46,47,
48,49,50,51,52,53,54,55,
56,57,58,59,60 $ Display nodegroup for : LoadSet<LOAD>{original_id=1}
SET 151 = 1 $ Orientation of coordinate system: 121
SET 153 = 2 $ Orientation of coordinate system: 122
SET 154 = 2 $ PROP_6
SET 152 = 1 $ PROP_8
SET 155 = 61,62,63,64,65,66,67,
68,69,70,71,72,73,74,75,
76,77,78,79,80,81,82,83,
84,85,86,87,88,89,90,91,
92,93,94,95,96,97,98,99,
100,101,102,103,104,105,106,107,
108,109,110,111,112,113,114,115,
116,117,118 $ PROP_9
  STRESS(VONMISES) = 154
SUBCASE 1
  LOAD=1
  SPC=1
  DISP = 158
SUBCASE 2
  LOAD=2
  SPC=1
  DISP = 158
SUBCASE 3
  LOAD=3
  SPC=1
  DISP = 158  
SUBCASE 4
  LOAD=4
  SPC=1
  DISP = 158    
$
TITLE=Vega Exported Model
BEGIN BULK
PARAM,PRGPST,NO
$---1--][---2--][---3--][---4--][---5--][---6--][---7--][---8--][---9--][--10--]
GRID           1            3.+2      0.    1.+1
GRID           2            3.+2   -1.+1    1.+1
GRID           3              0.      0.    1.+1
GRID           4              0.   -1.+1    1.+1
GRID           5        9.9984+0   -1.+1    1.+1
GRID           6        1.9997+1   -1.+1    1.+1
GRID           7        2.9995+1   -1.+1    1.+1
GRID           8        4.0498+1   -1.+1    1.+1
GRID           9        5.1451+1   -1.+1    1.+1
GRID          10         6.145+1   -1.+1    1.+1
GRID          11        7.1448+1   -1.+1    1.+1
GRID          12        8.2654+1   -1.+1    1.+1
GRID          13        9.2904+1   -1.+1    1.+1
GRID          14         1.029+2   -1.+1    1.+1
GRID          15         1.129+2   -1.+1    1.+1
GRID          16        1.2301+2   -1.+1    1.+1
GRID          17         1.343+2   -1.+1    1.+1
GRID          18         1.443+2   -1.+1    1.+1
GRID          19         1.543+2   -1.+1    1.+1
GRID          20         1.651+2   -1.+1    1.+1
$ ... 40 like lines cut
$---1--][---2--][---3--][---4--][---5--][---6--][---7--][---8--][---9--][--10--]
CTRIA3        61       9       4      33       3        
CTRIA3        62       9       1      60       2        
CTRIA3        63       9       5      33       4        
CTRIA3        64       9       6      34       5        
CTRIA3        65       9       7      35       6        
CTRIA3        66       9       8      36       7        
CTRIA3        67       9       9      37       8        
CTRIA3        68       9      10      38       9        
CTRIA3        69       9      11      39      10        
CTRIA3        70       9      12      40      11        
CTRIA3        71       9      13      40      12        
CTRIA3        72       9      14      41      13        
CTRIA3        73       9      15      43      14        
CTRIA3        74       9      16      44      15        
CTRIA3        75       9      17      44      16        
CTRIA3        76       9      18      45      17        
CTRIA3        77       9      19      46      18        
CTRIA3        78       9      20      47      19        
CTRIA3        79       9      21      48      20        
CTRIA3        80       9      22      49      21        
$ ... 38 like lines cut
$---1--][---2--][---3--][---4--][---5--][---6--][---7--][---8--][---9--][--10--]
MAT1           1    2.+57.6923+4    3.-1      0.
$---1--][---2--][---3--][---4--][---5--][---6--][---7--][---8--][---9--][--10--]
PSHELL         9       1    1.+1       1
$---1--][---2--][---3--][---4--][---5--][---6--][---7--][---8--][---9--][--10--]
SPC1           1  123456       1
SPC1           1  123456       2
SPC1           1       4       1
SPC1           1       4       2
SPC1           1       4       3
SPC1           1       4       4
SPC1           1       4       5
SPC1           1       4       6
SPC1           1       4       7
SPC1           1       4       8
SPC1           1       4       9
SPC1           1       4      10
SPC1           1       4      11
SPC1           1       4      12
SPC1           1       4      13
SPC1           1       4      14
SPC1           1       4      15
SPC1           1       4      16
SPC1           1       4      17
SPC1           1       4      18
$ ... 42 like lines cut
$---1--][---2--][---3--][---4--][---5--][---6--][---7--][---8--][---9--][--10--]
PLOAD2         1    5.-1      61
PLOAD2         1    5.-1      62
PLOAD2         1    5.-1      63
PLOAD2         1    5.-1      64
PLOAD2         1    5.-1      65
PLOAD2         1    5.-1      66
PLOAD2         1    5.-1      67
PLOAD2         1    5.-1      68
PLOAD2         1    5.-1      69
PLOAD2         1    5.-1      70
PLOAD2         1    5.-1      71
PLOAD2         1    5.-1      72
PLOAD2         1    5.-1      73
PLOAD2         1    5.-1      74
PLOAD2         1    5.-1      75
PLOAD2         1    5.-1      76
PLOAD2         1    5.-1      77
PLOAD2         1    5.-1      78
PLOAD2         1    5.-1      79
PLOAD2         1    5.-1      80
$ ... 38 like lines cut
$---1--][---2--][---3--][---4--][---5--][---6--][---7--][---8--][---9--][--10--]
PLOAD4         2      61    5.-1                            THRU     118
$---1--][---2--][---3--][---4--][---5--][---6--][---7--][---8--][---9--][--10--]
FORCE          3       1          .375+3     0.0     0.0     1.0
FORCE          3       2          .375+3     0.0     0.0     1.0
FORCE          3       3          .375+3     0.0     0.0     1.0
FORCE          3       4          .375+3     0.0     0.0     1.0
$---1--][---2--][---3--][---4--][---5--][---6--][---7--][---8--][---9--][--10--]
PLOAD          4    5.-1       1       3       4
PLOAD          4    5.-1       4       2       1
ENDDATA
