
$ None
SOL 111
DIAG 8
TIME 10000
CEND
$
TITLE=Vega Exported Model
LABEL=STIFFNESS
$METHOD=1
$RESVEC(NOINREL)=YES
ECHO=NONE
$DISPLACEMENT=ALL
$FORCE=ALL
$SPCFORCE=ALL
$STRESS=ALL
SET 208 = 541 $ DISP
SUBCASE 1

  SPC      = 1
  MPC      = 2
  LOAD     = 1
  FREQ     = 40
  METHOD   = 1
  RESVEC   = NO
  DLOAD    = 10
  DISP     = 208
BEGIN BULK
PARAM     ALPHA1    16.0     0.0
PARAM     ALPHA2   1.6-5     0.0
EIGRL          1                      20                             MAX
FREQ          40  1000.0
RLOAD2        10       1                      12            LOAD
TABLED1       12                                                        +
+            0.0     1.0  2000.0     1.0    ENDT
$---1--][---2--][---3--][---4--][---5--][---6--][---7--][---8--][---9--][--10--]
$GRDSET                                                       456
GRID           1             0.0     0.2     0.0
GRID           2             0.0     0.0     0.0
GRID           3             0.0     0.0     0.1
GRID           4             0.0     0.2     0.1
GRID           5             0.0     0.0   0.025
GRID           6             0.0     0.0    0.05
GRID           7             0.0     0.0   0.075
GRID           8             0.0     0.2   0.075
GRID           9             0.0     0.2    0.05
GRID          10             0.0     0.2   0.025
GRID          11             0.0   0.025     0.1
GRID          12             0.0    0.05     0.1
GRID          13             0.0   0.075     0.1
GRID          14             0.0     0.1     0.1
GRID          15             0.0   0.125     0.1
GRID          16             0.0    0.15     0.1
GRID          17             0.0   0.175     0.1
GRID          18             0.0   0.175     0.0
GRID          19             0.0    0.15     0.0
GRID          20             0.0   0.125     0.0
$ ... 1057 like lines cut

$---1--][---2--][---3--][---4--][---5--][---6--][---7--][---8--][---9--][--10--]

CHEXA        257       1       1      19      25       9      53      71+
+             77      61      18      28      29      10      38      47+
+             50      43      70      80      81      62
CHEXA        258       1       9      25      16       4      61      77+
+             68      56      29      30      17       8      43      50+
+             46      41      81      82      69      60
CHEXA        259       1      19      21      26      25      71      73+
+             78      77      20      31      32      28      47      48+
+             51      50      72      83      84      80
CHEXA        260       1      25      26      14      16      77      78+
+             66      68      32      33      15      30      50      51+
+             45      46      84      85      67      82
CHEXA        261       1      21      23      27      26      73      75+
+             79      78      22      34      35      31      48      49+
+             52      51      74      86      87      83
CHEXA        262       1      26      27      12      14      78      79+
+             64      66      35      36      13      33      51      52+
+             44      45      87      88      65      85
CHEXA        263       1      23       2       6      27      75      54+
+             58      79      24       5      37      34      49      39+
+             42      52      76      57      89      86
CHEXA        264       1      27       6       3      12      79      58+
+             55      64      37       7      11      36      52      42+
+             40      44      89      59      63      88
CHEXA        265       1      53      71      77      61     105     123+
+            129     113      70      80      81      62      90      99+
+            102      95     122     132     133     114
CHEXA        266       1      61      77      68      56     113     129+
+            120     108      81      82      69      60      95     102+
+             98      93     133     134     121     112
CHEXA        267       1      71      73      78      77     123     125+
+            130     129      72      83      84      80      99     100+
+            103     102     124     135     136     132
CHEXA        268       1      77      78      66      68     129     130+
+            118     120      84      85      67      82     102     103+
+             97      98     136     137     119     134
CHEXA        269       1      73      75      79      78     125     127+
+            131     130      74      86      87      83     100     101+
+            104     103     126     138     139     135
CHEXA        270       1      78      79      64      66     130     131+
+            116     118      87      88      65      85     103     104+
+             96      97     139     140     117     137
CHEXA        271       1      75      54      58      79     127     106+
+            110     131      76      57      89      86     101      91+
+             94     104     128     109     141     138
CHEXA        272       1      79      58      55      64     131     110+
+            107     116      89      59      63      88     104      94+
+             92      96     141     111     115     140
CHEXA        273       1     105     123     129     113     157     175+
+            181     165     122     132     133     114     142     151+
+            154     147     174     184     185     166
CHEXA        274       1     113     129     120     108     165     181+
+            172     160     133     134     121     112     147     154+
+            150     145     185     186     173     164
CHEXA        275       1     123     125     130     129     175     177+
+            182     181     124     135     136     132     151     152+
+            155     154     176     187     188     184
CHEXA        276       1     129     130     118     120     181     182+
+            170     172     136     137     119     134     154     155+
+            149     150     188     189     171     186
$ ... 420 like lines cut

$---1--][---2--][---3--][---4--][---5--][---6--][---7--][---8--][---9--][--10--]


MPC            2       1       1     1.0       9       1    -1.0
MPC            2       2       1     1.0      21       1    -2.0        +
+                      9       1     1.0
MPC            2       3       1     1.0      21       1    -2.0        +
+                      9       1     1.0
MPC            2       4       1     1.0       9       1    -1.0
MPC            2       5       1     1.0      21       1    -2.0        +
+                      9       1     1.0
MPC            2       6       1     1.0      21       1    -2.0        +
+                      9       1     1.0
MPC            2       7       1     1.0      21       1    -2.0        +
+                      9       1     1.0
MPC            2       8       1     1.0       9       1    -1.0
MPC            2      10       1     1.0       9       1    -1.0
MPC            2      11       1     1.0      21       1   -1.75        +
+                      9       1    0.75
MPC            2      12       1     1.0      21       1    -1.5        +
+                      9       1     0.5
MPC            2      13       1     1.0      21       1   -1.25        +
+                      9       1    0.25
MPC            2      15       1     1.0      21       1   -0.75        +
+                      9       1   -0.25
MPC            2      16       1     1.0      21       1    -0.5        +
+                      9       1    -0.5
MPC            2      17       1     1.0      21       1   -0.25        +
+                      9       1   -0.75
MPC            2      18       1     1.0      21       1   -0.25        +
+                      9       1   -0.75
MPC            2      19       1     1.0      21       1    -0.5        +
+                      9       1    -0.5
MPC            2      20       1     1.0      21       1   -0.75        +
+                      9       1   -0.25
MPC            2      22       1     1.0      21       1   -1.25        +
+                      9       1    0.25
MPC            2      23       1     1.0      21       1    -1.5        +
+                      9       1     0.5
MPC            2      24       1     1.0      21       1   -1.75        +
+                      9       1    0.75
MPC            2      25       1     1.0      21       1    -0.5        +
+                      9       1    -0.5
MPC            2      27       1     1.0      21       1    -1.5        +
+                      9       1     0.5
MPC            2      28       1     1.0      21       1    -0.5        +
+                      9       1    -0.5
MPC            2      29       1     1.0      21       1   -0.25        +
+                      9       1   -0.75
MPC            2      30       1     1.0      21       1    -0.5        +
+                      9       1    -0.5
MPC            2      32       1     1.0      21       1   -0.75        +
+                      9       1   -0.25
MPC            2      34       1     1.0      21       1    -1.5        +
+                      9       1     0.5
MPC            2      35       1     1.0      21       1   -1.25        +
+                      9       1    0.25
MPC            2      36       1     1.0      21       1    -1.5        +
+                      9       1     0.5
MPC            2      37       1     1.0      21       1   -1.75        +
+                      9       1    0.75
MPC            2    1041       1     1.0    1049       1    -1.0
MPC            2    1042       1     1.0    1061       1    -2.0        +
+                   1049       1     1.0
MPC            2    1043       1     1.0    1061       1    -2.0        +
+                   1049       1     1.0
MPC            2    1044       1     1.0    1049       1    -1.0
MPC            2    1045       1     1.0    1061       1    -2.0        +
+                   1049       1     1.0
MPC            2    1046       1     1.0    1061       1    -2.0        +
+                   1049       1     1.0
MPC            2    1047       1     1.0    1061       1    -2.0        +
+                   1049       1     1.0
MPC            2    1048       1     1.0    1049       1    -1.0
MPC            2    1050       1     1.0    1049       1    -1.0
MPC            2    1051       1     1.0    1061       1   -1.75        +
+                   1049       1    0.75
MPC            2    1052       1     1.0    1061       1    -1.5        +
+                   1049       1     0.5
MPC            2    1053       1     1.0    1061       1   -1.25        +
+                   1049       1    0.25
MPC            2    1055       1     1.0    1061       1   -0.75        +
+                   1049       1   -0.25
MPC            2    1056       1     1.0    1061       1    -0.5        +
+                   1049       1    -0.5
MPC            2    1057       1     1.0    1061       1   -0.25        +
+                   1049       1   -0.75
MPC            2    1058       1     1.0    1061       1   -0.25        +
+                   1049       1   -0.75
MPC            2    1059       1     1.0    1061       1    -0.5        +
+                   1049       1    -0.5
MPC            2    1060       1     1.0    1061       1   -0.75        +
+                   1049       1   -0.25
MPC            2    1062       1     1.0    1061       1   -1.25        +
+                   1049       1    0.25
MPC            2    1063       1     1.0    1061       1    -1.5        +
+                   1049       1     0.5
MPC            2    1064       1     1.0    1061       1   -1.75        +
+                   1049       1    0.75
MPC            2    1065       1     1.0    1061       1    -0.5        +
+                   1049       1    -0.5
MPC            2    1067       1     1.0    1061       1    -1.5        +
+                   1049       1     0.5
MPC            2    1068       1     1.0    1061       1    -0.5        +
+                   1049       1    -0.5
MPC            2    1069       1     1.0    1061       1   -0.25        +
+                   1049       1   -0.75
MPC            2    1070       1     1.0    1061       1    -0.5        +
+                   1049       1    -0.5
MPC            2    1072       1     1.0    1061       1   -0.75        +
+                   1049       1   -0.25
MPC            2    1074       1     1.0    1061       1    -1.5        +
+                   1049       1     0.5
MPC            2    1075       1     1.0    1061       1   -1.25        +
+                   1049       1    0.25
MPC            2    1076       1     1.0    1061       1    -1.5        +
+                   1049       1     0.5
MPC            2    1077       1     1.0    1061       1   -1.75        +
+                   1049       1    0.75


SPC1           1      12      31
SPC1           1      12      14
SPC1           1      12      33
SPC1           1      12      26
SPC1           1      12      21

SPC1           1       2    1054
SPC1           1       2    1071
SPC1           1       2    1073
SPC1           1       2    1061
SPC1           1       2    1066

SPC1           1       3     285
SPC1           1       3     311
SPC1           1       3     240
SPC1           1       3     763
SPC1           1       3     674
SPC1           1       3     997
SPC1           1       3     414
SPC1           1       3     199
SPC1           1       3     786
SPC1           1       3     396
SPC1           1       3      35
SPC1           1       3     650
SPC1           1       3     727
SPC1           1       3     630
SPC1           1       3     445
SPC1           1       3     806
SPC1           1       3     667
SPC1           1       3     497
SPC1           1       3     519
SPC1           1       3     312
$ ... 269 like lines cut

$---1--][---2--][---3--][---4--][---5--][---6--][---7--][---8--][---9--][--10--]



PLOAD4         1     257500000.0                               1      61
PLOAD4         1     258500000.0                               9      56
PLOAD4         1     265500000.0                              53     113
PLOAD4         1     266500000.0                              61     108
PLOAD4         1     273500000.0                             105     165
PLOAD4         1     274500000.0                             113     160
PLOAD4         1     281500000.0                             157     217
PLOAD4         1     282500000.0                             165     212
PLOAD4         1     289500000.0                             209     269
PLOAD4         1     290500000.0                             217     264
PLOAD4         1     297500000.0                             261     321
PLOAD4         1     298500000.0                             269     316
PLOAD4         1     305500000.0                             313     373
PLOAD4         1     306500000.0                             321     368
PLOAD4         1     313500000.0                             365     425
PLOAD4         1     314500000.0                             373     420
PLOAD4         1     321500000.0                             417     477
PLOAD4         1     322500000.0                             425     472
PLOAD4         1     329500000.0                             469     529
PLOAD4         1     330500000.0                             477     524
$ ... 20 like lines cut

$---1--][---2--][---3--][---4--][---5--][---6--][---7--][---8--][---9--][--10--]

MAT1           1 2.1e+11             0.3  7800.0

$---1--][---2--][---3--][---4--][---5--][---6--][---7--][---8--][---9--][--10--]

PSOLID         1       1       0   THREE    GRID    FULL   SMECH


ENDDATA
