$
$ FILENAME - cbush1.dat
$ 
init master(s)
ID MSC, BUSHWELD $ V69 MAG 29-MAR-96
DIAG     8
TIME     1
SOL      101
CEND
TITLE = STATIC TEST OF SQUARE SURFACES WITH MISALIGNMENT    BUSHWELD
SUBTITLE = 10 X 10 MESHES - using cbush elements
SPC = 12
SPCF = ALL
$LOAD = 13
set 1 = 411005 $ load application points
DISP = 1
load = 12
OLOAD = ALL
set 121 = 10000 thru 10010 $ bush and elas elements
elforce=121
$
subcase 2
label = load the bush version
set 3 = 311000 thru 311010, 410000 thru 410010 $ boundary points
gpfo = 3
$
BEGIN BULK
$
$ WELD THE EDGES WITH BUSH ELEMENTS                                             
$
CBUSH   10000   1       311000  410000                          0               
CBUSH   10001   1       311001  410001                          0               
CBUSH   10002   1       311002  410002                          0               
CBUSH   10003   1       311003  410003                          0               
CBUSH   10004   1       311004  410004                          0               
CBUSH   10005   1       311005  410005                          0               
CBUSH   10006   1       311006  410006                          0               
CBUSH   10007   1       311007  410007                          0               
CBUSH   10008   1       311008  410008                          0               
CBUSH   10009   1       311009  410009                          0               
CBUSH   10010   1       311010  410010                          0               
$
CQUAD4  3100001 101     310000  310001  310101  310100                          
CQUAD4  3100002 101     310001  310002  310102  310101                          
CQUAD4  3100003 101     310002  310003  310103  310102                          
CQUAD4  3100004 101     310003  310004  310104  310103                          
CQUAD4  3100005 101     310004  310005  310105  310104                          
CQUAD4  3100006 101     310005  310006  310106  310105                          
CQUAD4  3100007 101     310006  310007  310107  310106                          
CQUAD4  3100008 101     310007  310008  310108  310107                          
CQUAD4  3100009 101     310008  310009  310109  310108                          
CQUAD4  3100010 101     310009  310010  310110  310109                          
CQUAD4  3100011 101     310100  310101  310201  310200                          
CQUAD4  3100012 101     310101  310102  310202  310201                          
CQUAD4  3100013 101     310102  310103  310203  310202                          
CQUAD4  3100014 101     310103  310104  310204  310203                          
CQUAD4  3100015 101     310104  310105  310205  310204                          
CQUAD4  3100016 101     310105  310106  310206  310205                          
CQUAD4  3100017 101     310106  310107  310207  310206                          
CQUAD4  3100018 101     310107  310108  310208  310207                          
CQUAD4  3100019 101     310108  310109  310209  310208                          
CQUAD4  3100020 101     310109  310110  310210  310209                          
$ ... 180 like lines cut
$
FORCE   12      411005          4.      1.      1.      1.                      
$
GRID    310000                                                                  
GRID    310001          2.      0.0     0.0                                     
GRID    310002          4.      0.0     0.0                                     
GRID    310003          6.      0.0     0.0                                     
GRID    310004          8.      0.0     0.0                                     
GRID    310005          10.     0.0     0.0                                     
GRID    310006          12.     0.0     0.0                                     
GRID    310007          14.     0.0     0.0                                     
GRID    310008          16.     0.0     0.0                                     
GRID    310009          18.     0.0     0.0                                     
GRID    310010          20.                                                     
GRID    310100          0.0     2.      0.0                                     
GRID    310101          2.      2.      0.0                                     
GRID    310102          4.      2.      0.0                                     
GRID    310103          6.      2.      0.0                                     
GRID    310104          8.      2.      0.0                                     
GRID    310105          10.     2.      0.0                                     
GRID    310106          12.     2.      0.0                                     
GRID    310107          14.     2.      0.0                                     
GRID    310108          16.     2.      0.0                                     
$ ... 222 like lines cut
MAT1    1001    3.0+7   11.538+6                                                
PARAM   K6ROT   1.0                                                             
PARAM   EST 1
PBUSH   1       K       1.+6    1.+6    1.+6    1.+6    1.+6    1.+6            
PSHELL  101     1001    0.1     1001                                            
SPC1    12      12345   310001  310002  310003  310004  310005  310006  +M00001 
+M00001 310007  310008  310009                                                  
ENDDATA