ID SEMINAR, PROB7
SOL 105
TIME 600
CEND
TITLE = ELASTIC STABILITY of PLATES
SUBCASE 1
 SPC = 2
 LOAD = 2
 DISPLACEMENT=ALL
 SPCFORCES=ALL
SUBCASE 2
 SPC = 2
 METHOD = 1
 VECTOR=ALL
 SPCFORCES=ALL
BEGIN BULK
CQUAD4  1       1       1       2       13      12                              
CQUAD4  2       1       2       3       14      13                              
CQUAD4  3       1       3       4       15      14                              
CQUAD4  4       1       4       5       16      15                              
CQUAD4  5       1       5       6       17      16                              
CQUAD4  6       1       6       7       18      17                              
CQUAD4  7       1       7       8       19      18                              
CQUAD4  8       1       8       9       20      19                              
CQUAD4  9       1       9       10      21      20                              
CQUAD4  10      1       10      11      22      21                              
CQUAD4  11      1       12      13      24      23                              
CQUAD4  12      1       13      14      25      24                              
CQUAD4  13      1       14      15      26      25                              
CQUAD4  14      1       15      16      27      26                              
CQUAD4  15      1       16      17      28      27                              
CQUAD4  16      1       17      18      29      28                              
CQUAD4  17      1       18      19      30      29                              
CQUAD4  18      1       19      20      31      30                              
CQUAD4  19      1       20      21      32      31                              
CQUAD4  20      1       21      22      33      32                              
$ ... 20 like lines cut
EIGRL   1                       5       0                                       
FORCE   1       11      0       1.      -1.     0.      0.                      
FORCE   1       55      0       1.      -1.     0.      0.                      
FORCE   3       22      0       2.      -1.     0.      0.                      
FORCE   3       33      0       2.      -1.     0.      0.                      
FORCE   3       44      0       2.      -1.     0.      0.                      
GRID    1               0.      0.      0.                                      
GRID    2               2.      0.      0.                                      
GRID    3               4.      0.      0.                                      
GRID    4               6.      0.      0.                                      
GRID    5               8.      0.      0.                                      
GRID    6               10.     0.      0.                                      
GRID    7               12.     0.      0.                                      
GRID    8               14.     0.      0.                                      
GRID    9               16.     0.      0.                                      
GRID    10              18.     0.      0.                                      
GRID    11              20.     0.      0.                                      
GRID    12              0.      2.      0.                                      
GRID    13              2.      2.      0.                                      
GRID    14              4.      2.      0.                                      
GRID    15              6.      2.      0.                                      
GRID    16              8.      2.      0.                                      
GRID    17              10.     2.      0.                                      
GRID    18              12.     2.      0.                                      
GRID    19              14.     2.      0.                                      
GRID    20              16.     2.      0.                                      
$ ... 35 like lines cut
LOAD    2       1.      1.      1       1.      3                               
MAT1    1       2.9+7           .3                                              
PSHELL  1       1       .01     1               1                               
SPC1    1       123     1       12      23      34      45                      
SPC1    3       23      11      22      33      44      55                      
SPC1    4       3       1       THRU    11                                      
SPC1    4       3       45      THRU    55                                      
SPCADD  2       1       3       4                                               
ENDDATA
