
$ miniRBS.mail
SOL 101
DIAG 8
TIME 10000
CEND
$
TITLE=Vega Exported Model
LABEL=STIFFNESS
ECHO=NONE

SUBCASE 1

 SPC=2

BEGIN BULK

$---1--][---2--][---3--][---4--][---5--][---6--][---7--][---8--][---9--][--10--]

GRID           1             6.0     6.0     0.0
GRID           2             6.0     6.0    26.0
GRID           3           100.0     6.0     0.0
GRID           4           100.0     6.0    26.0
GRID           5            82.5     6.0    20.5
GRID           6             6.0    69.0     0.0
GRID           7             6.0    69.0    26.0
GRID           8             6.0    51.5    20.5
GRID           9          32.111    51.5    23.0
GRID          10            82.5  17.729    23.0
GRID          11            82.5     8.0    20.5
GRID          12             8.0    51.5    20.5
GRID          13             8.0    51.5    23.0
GRID          14            82.5     8.0    23.0
GRID          15             0.0     0.0     0.0
GRID          16             0.0     0.0    26.0
GRID          17           170.0     0.0     0.0
GRID          18           170.0     0.0    26.0
GRID          19            82.5     0.0     3.5
GRID          20            82.5     0.0    20.5
$ ... 13786 like lines cut

$---1--][---2--][---3--][---4--][---5--][---6--][---7--][---8--][---9--][--10--]

CBUSH         37       5    1293    1294
CBUSH         38       5    1295    1296
CTETRA     20121       2   10368   10688    9798   12228
CTETRA     20122       2   10255   10702    9574   11317
CTETRA     20123       2   10398   11687    3243   11957
CTETRA     20124       2    9662    9827   10243   10770
CTETRA     20125       2    9444   10323   10103   10834
CTETRA     20126       2    9836    9526   10093   10488
CTETRA     20127       2    9861    9676   10979   11032
CTETRA     20128       2   10165   10537    1927   10936
CTETRA     20129       2    9445   10933   10700   10995
CTETRA     20130       2    1904   10151    1465   10946
CTETRA     20131       2    2836   10248    3075   11133
CTETRA     20132       2    9673   10753    9988   11133
CTETRA     20133       2   10700   10933   10078   10995
CTETRA     20134       2    9639   10425   10131   11882
CTETRA     20135       2    9624    9860   10811   10903
CTETRA     20136       2   10908   10930   10025   12090
CTETRA     20137       2   10248    9988   10753   11133
CTETRA     20138       2    9463   11029   10106   11126
CTETRA     20139       2   10245   10700   10078   10995
CTETRA     20140       2    9819   10776    9535   10981
$ ... 54575 like lines cut
CTRIA3      1868       4     181       6    2499
CTRIA3      1869       4       6     193    2499
CTRIA3      1870       4       7     192    2510
CTRIA3      1871       4     224       7    2510
CTRIA3      1898       4     182     181    2459
CTRIA3      1899       4     181    2223    2459
CTRIA3      1900       4    2223     181    2499
CTRIA3      1901       4     183     182    2255
CTRIA3      1902       4    2255     182    2459
CTRIA3      1903       4     184     183    2402
CTRIA3      1904       4     183    2255    2402
CTRIA3      1905       4     185     184    2382
CTRIA3      1906       4     184    2286    2382
CTRIA3      1907       4    2286     184    2402
CTRIA3      1908       4     186     185    2490
CTRIA3      1909       4    2235     185    2382
CTRIA3      1910       4     185    2235    2490
CTRIA3      1911       4     187     186    2318
CTRIA3      1912       4    2318     186    2490
CTRIA3      1913       4     188     187    2488
$ ... 337 like lines cut

$---1--][---2--][---3--][---4--][---5--][---6--][---7--][---8--][---9--][--10--]


$BCTABLE        1       2       3
$ slave
$BCBODY         2                       2
SET3          42    ELEM    1869    1870    1871    1898    1899    1900+       
+           1901    1902    1903    1904    1905    1906    1907    1908+       
+           1909    1910    1911    1912    1913    1914    1915    1916+       
+           1917    1918    1919    1920    1921    1922    1923    1924+       
+           1925    1926    1927    1928    1929    1930    1931    1932+       
+           1933    1935    1989    1990    1991    1992    1993    1994+       
+           1995    1996    1997    2000    2175    2176    2177    2178+       
+           2179    2187    2188    2189    2190    2191    2192    2193+       
+           2207    2208    2209    2210    2211    2212    2213    2243+       
+           2245    2248    2249    2250    2251    2252    2253    2254+       
+           2430    2431    2432    2433    2434    2435    2436    2437+       
+           2444    2445    2446    2447    2448    2449    2450    2451+       
+           2452    2453    2454    2459    2460    2461    2462    2463+       
+           2464    2465    2466    2467    2468    2469    2470    2471+       
+           2472    2473    2481    2482    2496    2497    2498    2499+       
+           2500    2501    2575    2576    2577    2578    2579    2580+       
+           2603    2604    2605    2606    2607    2608    2609    2610+       
+           2611    2703    2704    2705    2706    2729    2730    2731+       
+           2732    2733    2794    2847    2848    2849    2861    2862+       
+           2871    2872    2885    2886    2902    2915    2916    2919+       
+           2920    2942    1868
$ master
$BCBODY         3                       3
SET3          43   ELEM    51862   51863   51864   51865   51866   51867+       
+          51868   51869   51870   51871   51872   51873   51874   51875+       
+          51876   51877   51878   51879   51880   51881   51882   51883+       
+          51884   51885   51886   51887   51888   51889   51890   51891+       
+          51892   51893   51894   51895   51896   51897   51898   51899+       
+          51900   51901   51902   51903   51904   51905   51906   51907+       
+          51908   51909   51910   51911   51912   51913   51914   51915+       
+          51916   51917   51918   51919   51920   51921   51922   51923+       
+          51924   51925   51926   51927   51928   51929   51930   51931+       
+          51932   51933   51934   51935   51936   51937   51938   51939+       
+          51940   51941   51942   51943   51944   51945   51946   51947+       
+          51948   51949   51950   51951   51952   51953   51954   51955+       
+          51956   51957   51958   51959   51960   51961   51962   51963+       
+          51964   51965   51966   51967   51968   51969   51970   51971+       
+          51972   51973   51974   51975   51976   51977   51978   51979+       
+          51980   51981   51982   51983   51984   51985   51986   51987+       
+          51988   51989   51990   51991   51992   51993   51994   51995+       
+          51996   51997   51998   51999   52000   52001   52002   52003+       
+          52004   52005   52006   52007   52008   52009   52010   52011+       
+          52012   52013   52014   52015   52016   52017   52018   52019+       
+          52020   52021   52022   52023   52024   52025   52026   52027+       
$ ... 2836 like lines cut
+          51861                                                        

RBE2           1    5038  123456     509     536    5062    5051     516+       
+            497     519    5037     529     484     479     499     513+       
+           5041     502     531     524     481     510    5046     532+       
+            523    5055     482    5048     493      12    5063    5050+       
+            517     496     506    5036     528     485    5053     498+       
+            488     514    5042     495     501    5035     527     486+       
+            511    5047     533     522    5054     483    5049    5059+       
+            492    5044      13     534     521    5060    5057     491+       
+            505    5039    5052     489     515    5043     494     500+       
+            518     526     487     512    5040     503     530     525+       
+            480    5058    5045     535     520    5061    5056     490+       
+            504    1296
RBE2           2     541  123456    1294    1325    1301    1314     551+       
+            544    1320     474     560    1304    1311      14     556+       
+            547     466     477     469    1307     558      11    1297+       
+            542     463     472     454     538     540     537    1324+       
+            460    1300    1315     453     552    1318    1299    1323+       
+            543     563     478    1303    1312     549     557     546+       
+            467     476     456     458     559     554     464     471+       
+            457     539     459     461    1309    1316     452     553+       
+           1319    1298    1322     562    1302    1313     451     548+       
+            550     545    1321     475     561    1305    1310     555+       
+            465     470     468     564    1308     462    1306     473+       
+           1317     455
RBE2           3    9351  123456    1295    9322    1255    9333    1249+       
+           9367    9348    9376    9315    1230    9356    1256    9321+       
+           1247    9369    9303    9312    1233      36    1240    9309+       
+           9339    9371    9306    9346    1239    9326    9358    1250+       
+           9337    9363    9372    9319    9341    1234    9352    9325+       
+           9330    9366    9316    1237    9357    1229    9320    1244+       
+           9368    9365    9302    9313    1232    9354    1254    1241+       
+           9308    9305    9345    1238    9310    9359    1253    9334+       
+           1242    9362    9373    9340    9353    9324    9331    9329+       
+           9361    9374    9317    9343    1236    9350    9323    1245+       
+           9332    1248    9364    9349    9314    1231    9355    1246+       
+           9304    9344    9311    1252    9335    1243    9338    9370+       
+           9307    9347    9327    1251    9336    9328    9360    9375+       
+           9318    9342    1235
RBE2           4     810  123456    1293     772     783     809     763+       
+            796     776      19     767     786     769     793     773+       
+            798      20     806     762     758     797     777     802+       
+            766     789     803     790     812     799     785     807+       
+            761     759     794     770     781     765     788     800+       
+            774     791     771     784     804     760     778     795+       
+            811     757     780     808     764     801     775     768+       
+            787     805     792     779     782


SPC1           2     123      23
SPC1           2     123     887
SPC1           2     123     928
SPC1           2     123      23
SPC1           2     123     887
SPC1           2     123     928
SPC1           2     123     914
SPC1           2     123      23
SPC1           2     123     929
SPC1           2     123     914
SPC1           2     123      23
SPC1           2     123     929
SPC1           2     123     929
SPC1           2     123      23
SPC1           2     123     928
SPC1           2     123     929
SPC1           2     123      23
SPC1           2     123     928
SPC1           2     123     901
SPC1           2     123      24
$ ... 328 like lines cut

SPC1           3       1      21
SPC1           3       1     813
SPC1           3       1    9388
SPC1           3       1      21
SPC1           3       1     813
SPC1           3       1    9388
SPC1           3       1    1059
SPC1           3       1      21
SPC1           3       1    9388
SPC1           3       1    1059
SPC1           3       1      21
SPC1           3       1    9388
SPC1           3       1     824
SPC1           3       1      22
SPC1           3       1    9389
SPC1           3       1     824
SPC1           3       1      22
SPC1           3       1    9389
SPC1           3       1      22
SPC1           3       1    1176
$ ... 640 like lines cut

$---1--][---2--][---3--][---4--][---5--][---6--][---7--][---8--][---9--][--10--]

MAT1           3   1e-12             0.0        
MAT1           1 32000.0           0.346 1.5e-09
MAT1           21.14e+05            0.344.46e-09

$---1--][---2--][---3--][---4--][---5--][---6--][---7--][---8--][---9--][--10--]

PSOLID         1       1       0   THREE    GRID    FULL   SMECH
PSOLID         2       2       0   THREE    GRID    FULL   SMECH
PBUSH          5       K 1.0e+09 1.0e+09 1.0e+09 1.0e+09 1.0e+09 1.0e+09

ENDDATA
