0     PLOAD4                                                                                                 SUBCASE 1

                                             D I S P L A C E M E N T   V E C T O R

      POINT ID.   TYPE          T1             T2             T3             R1             R2             R3
             1      G      0.0            0.0            0.0            0.0            0.0            0.0
             2      G     -2.640000E-07   0.0            0.0            0.0            0.0            0.0
             3      G      0.0           -2.640000E-07   0.0            0.0            0.0            0.0
             4      G     -2.640000E-07  -2.640000E-07   0.0            0.0            0.0            0.0
             5      G     -2.117582E-22  -3.308722E-23   8.799999E-07   0.0            0.0            0.0
             6      G     -2.640000E-07  -1.455838E-22   8.799999E-07   0.0            0.0            0.0
             7      G     -2.646978E-22  -2.640000E-07   8.799999E-07   0.0            0.0            0.0
             8      G     -2.640000E-07  -2.640000E-07   8.799999E-07   0.0            0.0            0.0
1    PLOADB                                                                   MARCH  19, 2019  MSC.NASTRAN  7/ 6/12   PAGE    11

0     PLOAD4B                                                                                                SUBCASE 2

                                             D I S P L A C E M E N T   V E C T O R

      POINT ID.   TYPE          T1             T2             T3             R1             R2             R3
             1      G      0.0            0.0            0.0            0.0            0.0            0.0
             2      G     -1.464590E-06   0.0            0.0            0.0            0.0            0.0
             3      G      0.0            8.234101E-07   0.0            0.0            0.0            0.0
             4      G     -1.131410E-06   1.258977E-08   0.0            0.0            0.0            0.0
             5      G     -5.043286E-06   1.047136E-07  -1.593185E-06   0.0            0.0            0.0
             6      G     -4.563410E-06   5.021909E-07   1.892090E-06   0.0            0.0            0.0
             7      G     -4.645809E-06   5.845897E-07  -1.539910E-06   0.0            0.0            0.0
             8      G     -4.289685E-06  -2.856852E-07   1.769005E-06   0.0            0.0            0.0
