$ MeshPyraLin.bdf
ID MeshPyraLin.bdf,NASTRAN
SOL 101
APP   DISP
TIME  10000
CEND
  SET 10 = 4,5,6,10,11,12,15,
16,194
SUBCASE 1
  LOAD=1
  SPC=1
  DISP = 10
SUBCASE 2
  LOAD=2
  SPC=1
  DISP = 10
SUBCASE 3
  LOAD=3
  SPC=1
  DISP = 10
SUBCASE 4
  LOAD=4
  SPC=1
  DISP = 10
$
TITLE=Vega Exported Model
BEGIN BULK
PARAM,PRGPST,NO
$---1--][---2--][---3--][---4--][---5--][---6--][---7--][---8--][---9--][--10--]
GRID           1              0.      0.    2.+1
GRID           2              0.      0.      0.
GRID           3              0.      0.    1.+1
GRID           4            3.+2 3.33-14    2.+1
GRID           5            3.+2 3.33-14      0.
GRID           6            3.+2 3.33-14    1.+1
GRID           7              0.   -1.+1    2.+1
GRID           8              0.   -1.+1      0.
GRID           9              0.   -1.+1    1.+1
GRID          10            3.+2   -1.+1    2.+1
GRID          11            3.+2   -1.+1      0.
GRID          12            3.+2   -1.+1    1.+1
GRID          13              0.   -5.+0      0.
GRID          14              0.   -5.+0    2.+1
GRID          15            3.+2   -5.+0      0.
GRID          16            3.+2   -5.+0    2.+1
GRID          17        5.4506+0      0.    2.+1
GRID          18        1.3012+1 1.44-15    2.+1
GRID          19        2.3108+1 2.57-15    2.+1
GRID          20        3.3204+1 3.69-15    2.+1
$ ... 185 like lines cut
$---1--][---2--][---3--][---4--][---5--][---6--][---7--][---8--][---9--][--10--]
CTETRA       513       1     171     149      91     150        
CTETRA       514       1     136     181      78     164        
CTETRA       515       1     163     203      17     196        
CTETRA       516       1     180      48     136     164        
CTETRA       518       1     112     183      82     141        
CTETRA       519       1     181     108     138     137        
CTETRA       520       1     100     129     205      99        
CTETRA       521       1     176     177      73     160        
CTETRA       523       1     191      69     174     157        
CTETRA       524       1      35     172      36      64        
CTETRA       525       1      49     181     136      20        
CTETRA       526       1     203     163      17      18        
CTETRA       528       1       9     198     204     193        
CTETRA       529       1     180      19      48     164        
CTETRA       530       1     188     152      93     172        
CTETRA       531       1     195      75      13       2        
CTETRA       533       1     152     188      93     151        
CTETRA       534       1      49     137     136     181        
CTETRA       535       1     167     142      84     184        
CTETRA       536       1      80     110      81     182        
$ ... 406 like lines cut
CPYRA        517       1       2       3     193      13     195        
CPYRA        522       1       3       1      14     193     196        
CPYRA        527       1      13     193       9       8     197        
CPYRA        532       1     193      14       7       9     198        
CPYRA        537       1      11      12     194      15     199        
CPYRA        542       1      12      10      16     194     200        
CPYRA        547       1      15     194       6       5     201        
CPYRA        552       1     194      16       4       6     202        
$---1--][---2--][---3--][---4--][---5--][---6--][---7--][---8--][---9--][--10--]
MAT1           1    2.+57.6923+4    3.-1      0.
$---1--][---2--][---3--][---4--][---5--][---6--][---7--][---8--][---9--][--10--]
PSOLID         1       1       0   THREE    GRID    FULL   SMECH
$---1--][---2--][---3--][---4--][---5--][---6--][---7--][---8--][---9--][--10--]
SPC1           1     123       1
SPC1           1     123       2
SPC1           1     123       3
SPC1           1     123       7
SPC1           1     123       8
SPC1           1     123       9
SPC1           1     123      13
SPC1           1     123      14
SPC1           1     123     193
$---1--][---2--][---3--][---4--][---5--][---6--][---7--][---8--][---9--][--10--]
PLOAD4         1     537    5.-1                              11      15+31
+31            0   -1.+0      0.      0.
PLOAD4         1     542    5.-1                              12     194+32
+32            0   -1.+0      0.      0.
PLOAD4         1     547    5.-1                              15       5+33
+33            0   -1.+0      0.      0.
PLOAD4         1     552    5.-1                             194       6+34
+34            0   -1.+0      0.      0.
PLOAD4         2     537    5.-1                              11      15+35
+35            0      0.   -1.+0      0.
PLOAD4         2     542    5.-1                              12     194+36
+36            0      0.   -1.+0      0.
PLOAD4         2     547    5.-1                              15       5+37
+37            0      0.   -1.+0      0.
PLOAD4         2     552    5.-1                             194       6+38
+38            0      0.   -1.+0      0.
PLOAD4         3     537    5.-1                              11      15+39
+39            0      0.      0.   -1.+0
PLOAD4         3     542    5.-1                              12     194+40
+40            0      0.      0.   -1.+0
PLOAD4         3     547    5.-1                              15       5+41
+41            0      0.      0.   -1.+0
PLOAD4         3     552    5.-1                             194       6+42
+42            0      0.      0.   -1.+0
PLOAD4         4     537    5.-1                              11      15
PLOAD4         4     542    5.-1                              12     194
PLOAD4         4     547    5.-1                              15       5
PLOAD4         4     552    5.-1                             194       6
ENDDATA
