$ MeshPentaQuad.bdf
ID MeshPentaQuad.bdf,NASTRAN
SOL 101
APP   DISP
TIME  10000
CEND
  SET 15 = 7,8,9,10,11,12,17,
18,19,20,141,142,143,144,151,
152,153,154,155,156,932,933,934,
935,936,937,938,939,940,941,942
SUBCASE 1
  LOAD=1
  SPC=1
  DISP = 15
SUBCASE 2
  LOAD=2
  SPC=1
  DISP = 15
SUBCASE 3
  LOAD=3
  SPC=1
  DISP = 15
SUBCASE 4
  LOAD=4
  SPC=1
  DISP = 15
$
TITLE=Vega Exported Model
BEGIN BULK
PARAM,PRGPST,NO
$---1--][---2--][---3--][---4--][---5--][---6--][---7--][---8--][---9--][--10--]
GRID           1              0.      0.      0.
GRID           2              0.   -1.+1      0.
GRID           3              0.   -5.+0      0.
GRID           4              0.      0.    2.+1
GRID           5              0.   -1.+1    2.+1
GRID           6              0.   -5.+0    2.+1
GRID           7            3.+2 3.33-14      0.
GRID           8            3.+2   -1.+1      0.
GRID           9            3.+2   -5.+0      0.
GRID          10            3.+2 3.33-14    2.+1
GRID          11            3.+2   -1.+1    2.+1
GRID          12            3.+2   -5.+0    2.+1
GRID          13              0.   -1.+16.0532+0
GRID          14              0.   -1.+11.3915+1
GRID          15              0.      0.6.0532+0
GRID          16              0.      0.1.3915+1
GRID          17            3.+2   -1.+11.3915+1
GRID          18            3.+2 3.46-141.3915+1
GRID          19            3.+2 3.46-146.0532+0
GRID          20            3.+2   -1.+16.0532+0
$ ... 1271 like lines cut
$---1--][---2--][---3--][---4--][---5--][---6--][---7--][---8--][---9--][--10--]
CPENTA      1221       1      11      12      17     136     815     305+1393
+1393        144     933     154     845     480     276     479     846+1394
+1394        972        
CPENTA      1222       1     136     815     305     135     816     304+1395
+1395        846     972     479     848     478     275     477     849+1396
+1396        973        
CPENTA      1223       1     135     816     304     134     817     303+1397
+1397        849     973     477     851     476     274     475     852+1398
+1398        974        
CPENTA      1224       1     134     817     303     133     818     302+1399
+1399        852     974     475     854     474     273     473     855+1400
+1400        975        
CPENTA      1225       1     133     818     302     132     819     301+1401
+1401        855     975     473     857     472     272     471     858+1402
+1402        976        
CPENTA      1226       1     132     819     301     131     820     300+1403
+1403        858     976     471     860     470     271     469     861+1404
+1404        977        
CPENTA      1227       1     131     820     300     130     821     299+1405
+1405        861     977     469     863     468     270     467     864+1406
+1406        978        
CPENTA      1228       1     130     821     299     129     822     298+1407
+1407        864     978     467     866     466     269     465     867+1408
+1408        979        
CPENTA      1229       1     129     822     298     128     823     297+1409
+1409        867     979     465     869     464     268     463     870+1410
+1410        980        
CPENTA      1230       1     128     823     297     127     824     296+1411
+1411        870     980     463     872     462     267     461     873+1412
+1412        981        
CPENTA      1231       1     127     824     296     126     825     295+1413
+1413        873     981     461     875     460     266     459     876+1414
+1414        982        
CPENTA      1232       1     126     825     295     125     826     294+1415
+1415        876     982     459     878     458     265     457     879+1416
+1416        983        
CPENTA      1233       1     125     826     294     124     827     293+1417
+1417        879     983     457     881     456     264     455     882+1418
+1418        984        
CPENTA      1234       1     124     827     293     123     828     292+1419
+1419        882     984     455     884     454     263     453     885+1420
+1420        985        
CPENTA      1235       1     123     828     292     122     829     291+1421
+1421        885     985     453     887     452     262     451     888+1422
+1422        986        
CPENTA      1236       1     122     829     291     121     830     290+1423
+1423        888     986     451     890     450     261     449     891+1424
+1424        987        
CPENTA      1237       1     121     830     290     120     831     289+1425
+1425        891     987     449     893     448     260     447     894+1426
+1426        988        
CPENTA      1238       1     120     831     289     119     832     288+1427
+1427        894     988     447     896     446     259     445     897+1428
+1428        989        
CPENTA      1239       1     119     832     288     118     833     287+1429
+1429        897     989     445     899     444     258     443     900+1430
+1430        990        
CPENTA      1240       1     118     833     287     117     834     286+1431
+1431        900     990     443     902     442     257     441     903+1432
+1432        991        
$ ... 840 like lines cut
$---1--][---2--][---3--][---4--][---5--][---6--][---7--][---8--][---9--][--10--]
MAT1           1    2.+57.6923+4    3.-1      0.
$---1--][---2--][---3--][---4--][---5--][---6--][---7--][---8--][---9--][--10--]
PSOLID         1       1       0   THREE    GRID    FULL   SMECH
$---1--][---2--][---3--][---4--][---5--][---6--][---7--][---8--][---9--][--10--]
SPC1           1     123       1
SPC1           1     123       2
SPC1           1     123       3
SPC1           1     123       4
SPC1           1     123       5
SPC1           1     123       6
SPC1           1     123      13
SPC1           1     123      14
SPC1           1     123      15
SPC1           1     123      16
SPC1           1     123     137
SPC1           1     123     138
SPC1           1     123     139
SPC1           1     123     140
SPC1           1     123     145
SPC1           1     123     146
SPC1           1     123     147
SPC1           1     123     148
SPC1           1     123     149
SPC1           1     123     150
$ ... 11 like lines cut
$---1--][---2--][---3--][---4--][---5--][---6--][---7--][---8--][---9--][--10--]
PLOAD4         1    1221    5.-1                              11        +1993
+1993          0   -1.+0      0.      0.
PLOAD4         1    1251    5.-1                              12        +1994
+1994          0   -1.+0      0.      0.
PLOAD4         1    1281    5.-1                               7        +1995
+1995          0   -1.+0      0.      0.
PLOAD4         1    1311    5.-1                               9        +1996
+1996          0   -1.+0      0.      0.
PLOAD4         1    1341    5.-1                              20        +1997
+1997          0   -1.+0      0.      0.
PLOAD4         1    1371    5.-1                               9        +1998
+1998          0   -1.+0      0.      0.
PLOAD4         1    1401    5.-1                              17        +1999
+1999          0   -1.+0      0.      0.
PLOAD4         1    1431    5.-1                              18        +2000
+2000          0   -1.+0      0.      0.
PLOAD4         1    1461    5.-1                              19        +2001
+2001          0   -1.+0      0.      0.
PLOAD4         1    1491    5.-1                             932        +2002
+2002          0   -1.+0      0.      0.
PLOAD4         2    1221    5.-1                              11        +2003
+2003          0      0.   -1.+0      0.
PLOAD4         2    1251    5.-1                              12        +2004
+2004          0      0.   -1.+0      0.
PLOAD4         2    1281    5.-1                               7        +2005
+2005          0      0.   -1.+0      0.
PLOAD4         2    1311    5.-1                               9        +2006
+2006          0      0.   -1.+0      0.
PLOAD4         2    1341    5.-1                              20        +2007
+2007          0      0.   -1.+0      0.
PLOAD4         2    1371    5.-1                               9        +2008
+2008          0      0.   -1.+0      0.
PLOAD4         2    1401    5.-1                              17        +2009
+2009          0      0.   -1.+0      0.
PLOAD4         2    1431    5.-1                              18        +2010
+2010          0      0.   -1.+0      0.
PLOAD4         2    1461    5.-1                              19        +2011
+2011          0      0.   -1.+0      0.
PLOAD4         2    1491    5.-1                             932        +2012
+2012          0      0.   -1.+0      0.
$ ... 21 like lines cut
PLOAD4         4    1251    5.-1                              12        
PLOAD4         4    1281    5.-1                               7        
PLOAD4         4    1311    5.-1                               9        
PLOAD4         4    1341    5.-1                              20        
PLOAD4         4    1371    5.-1                               9        
PLOAD4         4    1401    5.-1                              17        
PLOAD4         4    1431    5.-1                              18        
PLOAD4         4    1461    5.-1                              19        
PLOAD4         4    1491    5.-1                             932        
ENDDATA
