$ MeshTetraQuad.bdf
ID MeshTetraQuad.bdf,NASTRAN
SOL 101
APP   DISP
TIME  10000
CEND
  SET 13 = 32,33,34,93,96,216,217,
218,219,220,221,222,223,224,225,
226,227,228,229,230,231,232,233,
234,235,236,237,238,239,240,241
SUBCASE 1
  LOAD=1
  SPC=1
  DISP = 13
SUBCASE 2
  LOAD=2
  SPC=1
  DISP = 13
SUBCASE 3
  LOAD=3
  SPC=1
  DISP = 13
SUBCASE 4
  LOAD=4
  SPC=1
  DISP = 13
$
TITLE=Vega Exported Model
BEGIN BULK
PARAM,PRGPST,NO
$---1--][---2--][---3--][---4--][---5--][---6--][---7--][---8--][---9--][--10--]
GRID           1              0.      0.      0.
GRID           2              0.   -1.+1      0.
GRID           3              0.   -5.+0      0.
GRID           4              0.      0.    2.+1
GRID           5              0.   -1.+1    2.+1
GRID           6              0.   -5.+0    2.+1
GRID           7              0.   -1.+15.8068+0
GRID           8              0.   -1.+11.3373+1
GRID           9              0.      0.5.8068+0
GRID          10              0.      0.1.3373+1
GRID          11              0.-5.067+07.7505+0
GRID          12              0.  -7.5+0    2.+1
GRID          13              0.  -7.5+01.6687+1
GRID          14              0.   -1.+11.6687+1
GRID          15              0.  -2.5+0    2.+1
GRID          16              0.      0.1.6687+1
GRID          17              0.  -2.5+01.6687+1
GRID          18              0.  -2.5+0      0.
GRID          19              0.  -2.5+02.9034+0
GRID          20              0.      0.2.9034+0
$ ... 997 like lines cut
$---1--][---2--][---3--][---4--][---5--][---6--][---7--][---8--][---9--][--10--]
CTETRA      1031       1     331     332     330     347     366     367+505
+505         368     369     371     370        
CTETRA      1032       1      45      44     353      74     128     372+506
+506         373     130     129     374        
CTETRA      1033       1      83      82     341     320     200     375+507
+507         376     377     379     378        
CTETRA      1034       1     245     244     304     333     380     381+508
+508         382     383     385     384        
CTETRA      1035       1     244     245     304     274     380     382+509
+509         381     386     388     387        
CTETRA      1036       1     313      46      75      76     389     133+510
+510         390     391     135     193        
CTETRA      1037       1     343      87      86     324     392     204+511
+511         393     394     396     395        
CTETRA      1038       1     323     359     263     342     397     398+512
+512         399     400     402     401        
CTETRA      1039       1       6      35     331      10      99     403+513
+513         404      17     406     405        
CTETRA      1040       1     250     279     309     249     407     408+514
+514         409     410     412     411        
CTETRA      1041       1      35     302       6     331     413     414+515
+515          99     403     415     404        
CTETRA      1042       1      86     343     324     359     393     394+516
+516         395     416     418     417        
CTETRA      1043       1     276     334     307     247     419     420+517
+517         421     422     424     423        
CTETRA      1044       1     285     339     315     316     425     426+518
+518         427     428     430     429        
CTETRA      1045       1       6      10     331       8      17     405+519
+519         404      13      28     431        
CTETRA      1046       1     263     342     322     323     401     432+520
+520         433     399     400     434        
CTETRA      1047       1     330     301     331     347     435     436+521
+521         368     370     437     369        
CTETRA      1048       1     329     328     346     298     438     439+522
+522         440     441     443     442        
CTETRA      1049       1      42      72     309     352     123     444+523
+523         445     446     448     447        
CTETRA      1050       1      85      84     342     322     202     449+524
+524         450     451     452     432        
$ ... 784 like lines cut
$---1--][---2--][---3--][---4--][---5--][---6--][---7--][---8--][---9--][--10--]
MAT1           1    2.+57.6923+4    3.-1      0.
$---1--][---2--][---3--][---4--][---5--][---6--][---7--][---8--][---9--][--10--]
PSOLID         1       1       0   THREE    GRID    FULL   SMECH
$---1--][---2--][---3--][---4--][---5--][---6--][---7--][---8--][---9--][--10--]
SPC1           1     123       1
SPC1           1     123       2
SPC1           1     123       3
SPC1           1     123       4
SPC1           1     123       5
SPC1           1     123       6
SPC1           1     123       7
SPC1           1     123       8
SPC1           1     123       9
SPC1           1     123      10
SPC1           1     123      11
SPC1           1     123      12
SPC1           1     123      13
SPC1           1     123      14
SPC1           1     123      15
SPC1           1     123      16
SPC1           1     123      17
SPC1           1     123      18
SPC1           1     123      19
SPC1           1     123      20
$ ... 11 like lines cut
$---1--][---2--][---3--][---4--][---5--][---6--][---7--][---8--][---9--][--10--]
PLOAD4         1    1103    5.-1                              34      63+917
+917           0   -1.+0      0.      0.
PLOAD4         1    1217    5.-1                             220      92+918
+918           0   -1.+0      0.      0.
PLOAD4         1    1070    5.-1                             219     299+919
+919           0   -1.+0      0.      0.
PLOAD4         1    1132    5.-1                             216     270+920
+920           0   -1.+0      0.      0.
PLOAD4         1    1112    5.-1                             223     270+921
+921           0   -1.+0      0.      0.
PLOAD4         1    1344    5.-1                              34      63+922
+922           0   -1.+0      0.      0.
PLOAD4         1    1109    5.-1                             220     329+923
+923           0   -1.+0      0.      0.
PLOAD4         1    1279    5.-1                             222     346+924
+924           0   -1.+0      0.      0.
PLOAD4         1    1162    5.-1                             220     329+925
+925           0   -1.+0      0.      0.
PLOAD4         1    1189    5.-1                             223     299+926
+926           0   -1.+0      0.      0.
PLOAD4         2    1103    5.-1                              34      63+927
+927           0      0.   -1.+0      0.
PLOAD4         2    1217    5.-1                             220      92+928
+928           0      0.   -1.+0      0.
PLOAD4         2    1070    5.-1                             219     299+929
+929           0      0.   -1.+0      0.
PLOAD4         2    1132    5.-1                             216     270+930
+930           0      0.   -1.+0      0.
PLOAD4         2    1112    5.-1                             223     270+931
+931           0      0.   -1.+0      0.
PLOAD4         2    1344    5.-1                              34      63+932
+932           0      0.   -1.+0      0.
PLOAD4         2    1109    5.-1                             220     329+933
+933           0      0.   -1.+0      0.
PLOAD4         2    1279    5.-1                             222     346+934
+934           0      0.   -1.+0      0.
PLOAD4         2    1162    5.-1                             220     329+935
+935           0      0.   -1.+0      0.
PLOAD4         2    1189    5.-1                             223     299+936
+936           0      0.   -1.+0      0.
$ ... 21 like lines cut
PLOAD4         4    1217    5.-1                             220      92
PLOAD4         4    1070    5.-1                             219     299
PLOAD4         4    1132    5.-1                             216     270
PLOAD4         4    1112    5.-1                             223     270
PLOAD4         4    1344    5.-1                              34      63
PLOAD4         4    1109    5.-1                             220     329
PLOAD4         4    1279    5.-1                             222     346
PLOAD4         4    1162    5.-1                             220     329
PLOAD4         4    1189    5.-1                             223     299
ENDDATA
