$ MeshPentaLin.bdf
ID MeshPentaLin.bdf,NASTRAN
SOL 101
APP   DISP
TIME  10000
CEND
  SET 11 = 7,8,9,10,11,12,17,
18,19,20,312
SUBCASE 1
  LOAD=1
  SPC=1
  DISP = 11
SUBCASE 2
  LOAD=2
  SPC=1
  DISP = 11
SUBCASE 3
  LOAD=3
  SPC=1
  DISP = 11
SUBCASE 4
  LOAD=4
  SPC=1
  DISP = 11
$
TITLE=Vega Exported Model
BEGIN BULK
PARAM,PRGPST,NO
$---1--][---2--][---3--][---4--][---5--][---6--][---7--][---8--][---9--][--10--]
GRID           1              0.      0.      0.
GRID           2              0.   -1.+1      0.
GRID           3              0.   -5.+0      0.
GRID           4              0.      0.    2.+1
GRID           5              0.   -1.+1    2.+1
GRID           6              0.   -5.+0    2.+1
GRID           7            3.+2 3.33-14      0.
GRID           8            3.+2   -1.+1      0.
GRID           9            3.+2   -5.+0      0.
GRID          10            3.+2 3.33-14    2.+1
GRID          11            3.+2   -1.+1    2.+1
GRID          12            3.+2   -5.+0    2.+1
GRID          13              0.   -1.+16.0532+0
GRID          14              0.   -1.+11.3915+1
GRID          15              0.      0.6.0532+0
GRID          16              0.      0.1.3915+1
GRID          17            3.+2   -1.+11.3915+1
GRID          18            3.+2 3.46-141.3915+1
GRID          19            3.+2 3.46-146.0532+0
GRID          20            3.+2   -1.+16.0532+0
$ ... 321 like lines cut
$---1--][---2--][---3--][---4--][---5--][---6--][---7--][---8--][---9--][--10--]
CPENTA       461       1      11      12      17     136     283     165+43
+43             
CPENTA       462       1     136     283     165     135     284     164+44
+44             
CPENTA       463       1     135     284     164     134     285     163+45
+45             
CPENTA       464       1     134     285     163     133     286     162+46
+46             
CPENTA       465       1     133     286     162     132     287     161+47
+47             
CPENTA       466       1     132     287     161     131     288     160+48
+48             
CPENTA       467       1     131     288     160     130     289     159+49
+49             
CPENTA       468       1     130     289     159     129     290     158+50
+50             
CPENTA       469       1     129     290     158     128     291     157+51
+51             
CPENTA       470       1     128     291     157     127     292     156+52
+52             
CPENTA       471       1     127     292     156     126     293     155+53
+53             
CPENTA       472       1     126     293     155     125     294     154+54
+54             
CPENTA       473       1     125     294     154     124     295     153+55
+55             
CPENTA       474       1     124     295     153     123     296     152+56
+56             
CPENTA       475       1     123     296     152     122     297     151+57
+57             
CPENTA       476       1     122     297     151     121     298     150+58
+58             
CPENTA       477       1     121     298     150     120     299     149+59
+59             
CPENTA       478       1     120     299     149     119     300     148+60
+60             
CPENTA       479       1     119     300     148     118     301     147+61
+61             
CPENTA       480       1     118     301     147     117     302     146+62
+62             
$ ... 560 like lines cut
$---1--][---2--][---3--][---4--][---5--][---6--][---7--][---8--][---9--][--10--]
MAT1           1    2.+57.6923+4    3.-1      0.
$---1--][---2--][---3--][---4--][---5--][---6--][---7--][---8--][---9--][--10--]
PSOLID         1       1       0   THREE    GRID    FULL   SMECH
$---1--][---2--][---3--][---4--][---5--][---6--][---7--][---8--][---9--][--10--]
SPC1           1     123       1
SPC1           1     123       2
SPC1           1     123       3
SPC1           1     123       4
SPC1           1     123       5
SPC1           1     123       6
SPC1           1     123      13
SPC1           1     123      14
SPC1           1     123      15
SPC1           1     123      16
SPC1           1     123     282
$---1--][---2--][---3--][---4--][---5--][---6--][---7--][---8--][---9--][--10--]
PLOAD4         1     461    5.-1                              11        +343
+343           0   -1.+0      0.      0.
PLOAD4         1     491    5.-1                              12        +344
+344           0   -1.+0      0.      0.
PLOAD4         1     521    5.-1                               7        +345
+345           0   -1.+0      0.      0.
PLOAD4         1     551    5.-1                               9        +346
+346           0   -1.+0      0.      0.
PLOAD4         1     581    5.-1                              20        +347
+347           0   -1.+0      0.      0.
PLOAD4         1     611    5.-1                               9        +348
+348           0   -1.+0      0.      0.
PLOAD4         1     641    5.-1                              17        +349
+349           0   -1.+0      0.      0.
PLOAD4         1     671    5.-1                              18        +350
+350           0   -1.+0      0.      0.
PLOAD4         1     701    5.-1                              19        +351
+351           0   -1.+0      0.      0.
PLOAD4         1     731    5.-1                             312        +352
+352           0   -1.+0      0.      0.
PLOAD4         2     461    5.-1                              11        +353
+353           0      0.   -1.+0      0.
PLOAD4         2     491    5.-1                              12        +354
+354           0      0.   -1.+0      0.
PLOAD4         2     521    5.-1                               7        +355
+355           0      0.   -1.+0      0.
PLOAD4         2     551    5.-1                               9        +356
+356           0      0.   -1.+0      0.
PLOAD4         2     581    5.-1                              20        +357
+357           0      0.   -1.+0      0.
PLOAD4         2     611    5.-1                               9        +358
+358           0      0.   -1.+0      0.
PLOAD4         2     641    5.-1                              17        +359
+359           0      0.   -1.+0      0.
PLOAD4         2     671    5.-1                              18        +360
+360           0      0.   -1.+0      0.
PLOAD4         2     701    5.-1                              19        +361
+361           0      0.   -1.+0      0.
PLOAD4         2     731    5.-1                             312        +362
+362           0      0.   -1.+0      0.
$ ... 21 like lines cut
PLOAD4         4     491    5.-1                              12        
PLOAD4         4     521    5.-1                               7        
PLOAD4         4     551    5.-1                               9        
PLOAD4         4     581    5.-1                              20        
PLOAD4         4     611    5.-1                               9        
PLOAD4         4     641    5.-1                              17        
PLOAD4         4     671    5.-1                              18        
PLOAD4         4     701    5.-1                              19        
PLOAD4         4     731    5.-1                             312        
ENDDATA
