$ MeshHexaQuad.bdf
ID MeshHexaQuad.bdf,NASTRAN
SOL 101
APP   DISP
TIME  10000
CEND
  SET 16 = 22,23,82,115,118,262,263,
264,265,266,267,268,269,270,271,
272,273,274,275,276,277
SUBCASE 1
  LOAD=1
  SPC=1
  DISP = 16
SUBCASE 2
  LOAD=2
  SPC=1
  DISP = 16
SUBCASE 3
  LOAD=3
  SPC=1
  DISP = 16
SUBCASE 4
  LOAD=4
  SPC=1
  DISP = 16
$
TITLE=Vega Exported Model
BEGIN BULK
PARAM,PRGPST,NO
$---1--][---2--][---3--][---4--][---5--][---6--][---7--][---8--][---9--][--10--]
GRID           1              0.      0.    2.+1
GRID           2              0.      0.      0.
GRID           3              0.   -1.+1    2.+1
GRID           4              0.   -1.+1      0.
GRID           5              0.      0.    1.+1
GRID           6              0.   -1.+1    1.+1
GRID           7              0.   -5.+0      0.
GRID           8              0.   -5.+0    2.+1
GRID           9              0.   -5.+0    1.+1
GRID          10              0.  -2.5+0      0.
GRID          11              0.   -5.+0    5.+0
GRID          12              0.  -2.5+0    1.+1
GRID          13              0.      0.    5.+0
GRID          14              0.   -5.+0   1.5+1
GRID          15              0.  -2.5+0    2.+1
GRID          16              0.      0.   1.5+1
GRID          17              0.  -7.5+0      0.
GRID          18              0.   -1.+1    5.+0
GRID          19              0.  -7.5+0    1.+1
GRID          20              0.   -1.+1   1.5+1
$ ... 901 like lines cut
$---1--][---2--][---3--][---4--][---5--][---6--][---7--][---8--][---9--][--10--]
CHEXA        573       1       1       5     336      24       8       9+2023
+2023        423     111      16     452     453     259      12     454     255+2024
+2024         15     260      14     455     456        
CHEXA        574       1       8       9     423     111       3       6+2025
+2025        365      53      14     455     456     260      19     457     257+2026
+2026         21     261      20     458     459        
CHEXA        575       1      24     336     337      25     111     423+2027
+2027        424     110     453     460     461     254     454     462     250+2028
+2028        255     256     456     463     464        
CHEXA        576       1     111     423     424     110      53     365+2029
+2029        366      54     456     463     464     256     457     465     252+2030
+2030        257     258     459     466     467        
CHEXA        577       1      25     337     338      26     110     424+2031
+2031        425     109     461     468     469     249     462     470     245+2032
+2032        250     251     464     471     472        
CHEXA        578       1     110     424     425     109      54     366+2033
+2033        367      55     464     471     472     251     465     473     247+2034
+2034        252     253     467     474     475        
CHEXA        579       1      26     338     339      27     109     425+2035
+2035        426     108     469     476     477     244     470     478     240+2036
+2036        245     246     472     479     480        
CHEXA        580       1     109     425     426     108      55     367+2037
+2037        368      56     472     479     480     246     473     481     242+2038
+2038        247     248     475     482     483        
CHEXA        581       1      27     339     340      28     108     426+2039
+2039        427     107     477     484     485     239     478     486     235+2040
+2040        240     241     480     487     488        
CHEXA        582       1     108     426     427     107      56     368+2041
+2041        369      57     480     487     488     241     481     489     237+2042
+2042        242     243     483     490     491        
CHEXA        583       1      28     340     341      29     107     427+2043
+2043        428     106     485     492     493     234     486     494     230+2044
+2044        235     236     488     495     496        
CHEXA        584       1     107     427     428     106      57     369+2045
+2045        370      58     488     495     496     236     489     497     232+2046
+2046        237     238     491     498     499        
CHEXA        585       1      29     341     342      30     106     428+2047
+2047        429     105     493     500     501     229     494     502     225+2048
+2048        230     231     496     503     504        
CHEXA        586       1     106     428     429     105      58     370+2049
+2049        371      59     496     503     504     231     497     505     227+2050
+2050        232     233     499     506     507        
CHEXA        587       1      30     342     343      31     105     429+2051
+2051        430     104     501     508     509     224     502     510     220+2052
+2052        225     226     504     511     512        
CHEXA        588       1     105     429     430     104      59     371+2053
+2053        372      60     504     511     512     226     505     513     222+2054
+2054        227     228     507     514     515        
CHEXA        589       1      31     343     344      32     104     430+2055
+2055        431     103     509     516     517     219     510     518     215+2056
+2056        220     221     512     519     520        
CHEXA        590       1     104     430     431     103      60     372+2057
+2057        373      61     512     519     520     221     513     521     217+2058
+2058        222     223     515     522     523        
CHEXA        591       1      32     344     345      33     103     431+2059
+2059        432     102     517     524     525     214     518     526     210+2060
+2060        215     216     520     527     528        
CHEXA        592       1     103     431     432     102      61     373+2061
+2061        374      62     520     527     528     216     521     529     212+2062
+2062        217     218     523     530     531        
$ ... 300 like lines cut
$---1--][---2--][---3--][---4--][---5--][---6--][---7--][---8--][---9--][--10--]
MAT1           1    2.+57.6923+4    3.-1      0.
$---1--][---2--][---3--][---4--][---5--][---6--][---7--][---8--][---9--][--10--]
PSOLID         1       1       0   THREE    GRID    FULL   SMECH
$---1--][---2--][---3--][---4--][---5--][---6--][---7--][---8--][---9--][--10--]
SPC1           1     123       1
SPC1           1     123       2
SPC1           1     123       3
SPC1           1     123       4
SPC1           1     123       5
SPC1           1     123       6
SPC1           1     123       7
SPC1           1     123       8
SPC1           1     123       9
SPC1           1     123      10
SPC1           1     123      11
SPC1           1     123      12
SPC1           1     123      13
SPC1           1     123      14
SPC1           1     123      15
SPC1           1     123      16
SPC1           1     123      17
SPC1           1     123      18
SPC1           1     123      19
SPC1           1     123      20
SPC1           1     123      21
$---1--][---2--][---3--][---4--][---5--][---6--][---7--][---8--][---9--][--10--]
PLOAD4         1     692    5.-1                             267     265+2263
+2263          0   -1.+0      0.      0.
PLOAD4         1     632    5.-1                              82      23+2264
+2264          0   -1.+0      0.      0.
PLOAD4         1     691    5.-1                             264     267+2265
+2265          0   -1.+0      0.      0.
PLOAD4         1     631    5.-1                              22      82+2266
+2266          0   -1.+0      0.      0.
PLOAD4         2     692    5.-1                             267     265+2267
+2267          0      0.   -1.+0      0.
PLOAD4         2     632    5.-1                              82      23+2268
+2268          0      0.   -1.+0      0.
PLOAD4         2     691    5.-1                             264     267+2269
+2269          0      0.   -1.+0      0.
PLOAD4         2     631    5.-1                              22      82+2270
+2270          0      0.   -1.+0      0.
PLOAD4         3     692    5.-1                             267     265+2271
+2271          0      0.      0.   -1.+0
PLOAD4         3     632    5.-1                              82      23+2272
+2272          0      0.      0.   -1.+0
PLOAD4         3     691    5.-1                             264     267+2273
+2273          0      0.      0.   -1.+0
PLOAD4         3     631    5.-1                              22      82+2274
+2274          0      0.      0.   -1.+0
PLOAD4         4     692    5.-1                             267     265
PLOAD4         4     632    5.-1                              82      23
PLOAD4         4     691    5.-1                             264     267
PLOAD4         4     631    5.-1                              22      82
ENDDATA
