$ MeshPentaQuad.bdf
ID MeshPentaQuad.bdf,NASTRAN
SOL 101
APP   DISP
TIME  10000
CEND
  SET 2 = 7,8,9,10,11,12,17,
18,19,20,141,142,143,144,151,
152,153,154,155,156,932,933,934,
935,936,937,938,939,940,941,942
SUBCASE 1
  LOAD=1
  SPC=1
  DISP = 2
SUBCASE 2
  LOAD=2
  SPC=1
  DISP = 2
SUBCASE 3
  LOAD=3
  SPC=1
  DISP = 2
SUBCASE 4
  LOAD=4
  SPC=1
  DISP = 2
$
TITLE=Vega Exported Model
BEGIN BULK
PARAM,PRGPST,NO
$---1--][---2--][---3--][---4--][---5--][---6--][---7--][---8--][---9--][--10--]
GRID           1              0.      0.      0.
GRID           2              0.   -1.+1      0.
GRID           3              0.   -5.+0      0.
GRID           4              0.      0.    2.+1
GRID           5              0.   -1.+1    2.+1
GRID           6              0.   -5.+0    2.+1
GRID           7            3.+2 3.33-14      0.
GRID           8            3.+2   -1.+1      0.
GRID           9            3.+2   -5.+0      0.
GRID          10            3.+2 3.33-14    2.+1
GRID          11            3.+2   -1.+1    2.+1
GRID          12            3.+2   -5.+0    2.+1
GRID          13              0.   -1.+16.0532+0
GRID          14              0.   -1.+11.3915+1
GRID          15              0.      0.6.0532+0
GRID          16              0.      0.1.3915+1
GRID          17            3.+2   -1.+11.3915+1
GRID          18            3.+2 3.46-141.3915+1
GRID          19            3.+2 3.46-146.0532+0
GRID          20            3.+2   -1.+16.0532+0
$ ... 1271 like lines cut
$---1--][---2--][---3--][---4--][---5--][---6--][---7--][---8--][---9--][--10--]
CPENTA      1221       1      11      12      17     136     815     305+1
+1           144     933     154     276     845     480     846     972+2
+2           479        
CPENTA      1222       1     136     815     305     135     816     304+3
+3           846     972     479     275     848     478     849     973+4
+4           477        
CPENTA      1223       1     135     816     304     134     817     303+5
+5           849     973     477     274     851     476     852     974+6
+6           475        
CPENTA      1224       1     134     817     303     133     818     302+7
+7           852     974     475     273     854     474     855     975+8
+8           473        
CPENTA      1225       1     133     818     302     132     819     301+9
+9           855     975     473     272     857     472     858     976+10
+10          471        
CPENTA      1226       1     132     819     301     131     820     300+11
+11          858     976     471     271     860     470     861     977+12
+12          469        
CPENTA      1227       1     131     820     300     130     821     299+13
+13          861     977     469     270     863     468     864     978+14
+14          467        
CPENTA      1228       1     130     821     299     129     822     298+15
+15          864     978     467     269     866     466     867     979+16
+16          465        
CPENTA      1229       1     129     822     298     128     823     297+17
+17          867     979     465     268     869     464     870     980+18
+18          463        
CPENTA      1230       1     128     823     297     127     824     296+19
+19          870     980     463     267     872     462     873     981+20
+20          461        
CPENTA      1231       1     127     824     296     126     825     295+21
+21          873     981     461     266     875     460     876     982+22
+22          459        
CPENTA      1232       1     126     825     295     125     826     294+23
+23          876     982     459     265     878     458     879     983+24
+24          457        
CPENTA      1233       1     125     826     294     124     827     293+25
+25          879     983     457     264     881     456     882     984+26
+26          455        
CPENTA      1234       1     124     827     293     123     828     292+27
+27          882     984     455     263     884     454     885     985+28
+28          453        
CPENTA      1235       1     123     828     292     122     829     291+29
+29          885     985     453     262     887     452     888     986+30
+30          451        
CPENTA      1236       1     122     829     291     121     830     290+31
+31          888     986     451     261     890     450     891     987+32
+32          449        
CPENTA      1237       1     121     830     290     120     831     289+33
+33          891     987     449     260     893     448     894     988+34
+34          447        
CPENTA      1238       1     120     831     289     119     832     288+35
+35          894     988     447     259     896     446     897     989+36
+36          445        
CPENTA      1239       1     119     832     288     118     833     287+37
+37          897     989     445     258     899     444     900     990+38
+38          443        
CPENTA      1240       1     118     833     287     117     834     286+39
+39          900     990     443     257     902     442     903     991+40
+40          441        
$ ... 840 like lines cut
$---1--][---2--][---3--][---4--][---5--][---6--][---7--][---8--][---9--][--10--]
MAT1           1    2.+57.6923+4    3.-1      0.
$---1--][---2--][---3--][---4--][---5--][---6--][---7--][---8--][---9--][--10--]
PSOLID         1       1       0   THREE    GRID    FULL   SMECH
$---1--][---2--][---3--][---4--][---5--][---6--][---7--][---8--][---9--][--10--]
SPC1           1     123       1
SPC1           1     123       2
SPC1           1     123       3
SPC1           1     123       4
SPC1           1     123       5
SPC1           1     123       6
SPC1           1     123      13
SPC1           1     123      14
SPC1           1     123      15
SPC1           1     123      16
SPC1           1     123     137
SPC1           1     123     138
SPC1           1     123     139
SPC1           1     123     140
SPC1           1     123     145
SPC1           1     123     146
SPC1           1     123     147
SPC1           1     123     148
SPC1           1     123     149
SPC1           1     123     150
$ ... 11 like lines cut
$---1--][---2--][---3--][---4--][---5--][---6--][---7--][---8--][---9--][--10--]
PLOAD4         1    1221    5.-1                              11        +601
+601           0   -1.+0      0.      0.
PLOAD4         1    1251    5.-1                              12        +602
+602           0   -1.+0      0.      0.
PLOAD4         1    1281    5.-1                               7        +603
+603           0   -1.+0      0.      0.
PLOAD4         1    1311    5.-1                               9        +604
+604           0   -1.+0      0.      0.
PLOAD4         1    1341    5.-1                              20        +605
+605           0   -1.+0      0.      0.
PLOAD4         1    1371    5.-1                               9        +606
+606           0   -1.+0      0.      0.
PLOAD4         1    1401    5.-1                              17        +607
+607           0   -1.+0      0.      0.
PLOAD4         1    1431    5.-1                              18        +608
+608           0   -1.+0      0.      0.
PLOAD4         1    1461    5.-1                              19        +609
+609           0   -1.+0      0.      0.
PLOAD4         1    1491    5.-1                             932        +610
+610           0   -1.+0      0.      0.
PLOAD4         2    1221    5.-1                              11        +611
+611           0      0.   -1.+0      0.
PLOAD4         2    1251    5.-1                              12        +612
+612           0      0.   -1.+0      0.
PLOAD4         2    1281    5.-1                               7        +613
+613           0      0.   -1.+0      0.
PLOAD4         2    1311    5.-1                               9        +614
+614           0      0.   -1.+0      0.
PLOAD4         2    1341    5.-1                              20        +615
+615           0      0.   -1.+0      0.
PLOAD4         2    1371    5.-1                               9        +616
+616           0      0.   -1.+0      0.
PLOAD4         2    1401    5.-1                              17        +617
+617           0      0.   -1.+0      0.
PLOAD4         2    1431    5.-1                              18        +618
+618           0      0.   -1.+0      0.
PLOAD4         2    1461    5.-1                              19        +619
+619           0      0.   -1.+0      0.
PLOAD4         2    1491    5.-1                             932        +620
+620           0      0.   -1.+0      0.
$ ... 21 like lines cut
PLOAD4         4    1251    5.-1                              12        
PLOAD4         4    1281    5.-1                               7        
PLOAD4         4    1311    5.-1                               9        
PLOAD4         4    1341    5.-1                              20        
PLOAD4         4    1371    5.-1                               9        
PLOAD4         4    1401    5.-1                              17        
PLOAD4         4    1431    5.-1                              18        
PLOAD4         4    1461    5.-1                              19        
PLOAD4         4    1491    5.-1                             932        
ENDDATA
