$ MeshPyraQuad.bdf
ID MeshPyraQuad.bdf,NASTRAN
SOL 101
APP   DISP
TIME  10000
CEND
  SET 14 = 26,27,28,87,90,210,211,
212,213,214,215,216,217,218,219,
221,222,224,225,226,228
SUBCASE 1
  LOAD=1
  SPC=1
  DISP = 14
SUBCASE 2
  LOAD=2
  SPC=1
  DISP = 14
SUBCASE 3
  LOAD=3
  SPC=1
  DISP = 14
SUBCASE 4
  LOAD=4
  SPC=1
  DISP = 14
$
TITLE=Vega Exported Model
BEGIN BULK
PARAM,PRGPST,NO
$---1--][---2--][---3--][---4--][---5--][---6--][---7--][---8--][---9--][--10--]
GRID           1              0.      0.    2.+1
GRID           2              0.      0.      0.
GRID           3              0.      0.    1.+1
GRID           4              0.   -1.+1    2.+1
GRID           5              0.   -1.+1      0.
GRID           6              0.   -1.+1    1.+1
GRID           7              0.   -5.+0      0.
GRID           8              0.   -5.+0    2.+1
GRID           9              0.   -5.+0    1.+1
GRID          10              0.  -2.5+0      0.
GRID          11              0.   -5.+0    5.+0
GRID          12              0.  -2.5+0    1.+1
GRID          13              0.      0.    5.+0
GRID          14              0.  -2.5+0    5.+0
GRID          15              0.   -5.+0   1.5+1
GRID          16              0.  -2.5+0    2.+1
GRID          17              0.      0.   1.5+1
GRID          18              0.  -2.5+0   1.5+1
GRID          19              0.  -7.5+0      0.
GRID          20              0.   -1.+1    5.+0
$ ... 1023 like lines cut
$---1--][---2--][---3--][---4--][---5--][---6--][---7--][---8--][---9--][--10--]
CTETRA      1017       1     326     304     246     305     359     360+947
+947         361     362     364     363        
CTETRA      1018       1     291     336     233     319     365     366+948
+948         367     368     370     369        
CTETRA      1019       1     318     356      29     349     371     372+949
+949         373     374     376     375        
CTETRA      1020       1     335      60     291     319     377     378+950
+950         379     380     381     368        
CTETRA      1021       1     267     338     237     296     382     383+951
+951         384     385     387     386        
CTETRA      1022       1     336     263     293     292     388     389+952
+952         390     391     393     392        
CTETRA      1023       1     255     284     358     254     394     395+953
+953         396     397     399     398        
CTETRA      1024       1     331     332      85     315     400     401+954
+954         402     403     405     404        
CTETRA      1025       1     346      81     329     312     406     407+955
+955         408     409     411     410        
CTETRA      1026       1      47     327      48      76     412     413+956
+956         150     151     414     152        
CTETRA      1027       1      61     336     291      32     415     365+957
+957         416     106     418     417        
CTETRA      1028       1     356     318      29      30     371     373+958
+958         372     419     420     206        
CTETRA      1029       1       6     351     357       9     421     422+959
+959         423      21     425     424        
CTETRA      1030       1     335      31      60     319     426     103+960
+960         377     380     427     381        
CTETRA      1031       1     343     307     248     327     428     429+961
+961         430     431     433     432        
CTETRA      1032       1     348     230       7       2     434     435+962
+962         436     437     438      10        
CTETRA      1033       1     307     343     248     306     428     430+963
+963         429     439     441     440        
CTETRA      1034       1      61     292     291     336     442     443+964
+964         416     415     391     365        
CTETRA      1035       1     322     297     239     339     444     445+965
+965         446     447     449     448        
CTETRA      1036       1     235     265     236     337     450     451+966
+966         452     453     455     454        
$ ... 812 like lines cut
CPYRA       1443       1       2       3       9       7     348      13+1373
+1373         10      11      12     656     437     736     436        
CPYRA       1444       1       3       1       8       9     349      17+1374
+1374         12      15      16     995     770     548     780        
CPYRA       1445       1       7       9       6       5     350      11+1375
+1375         19      20      21     946     930     672     955        
CPYRA       1446       1       9       8       4       6     351      15+1376
+1376         21      23      24     819     425     877     421        
CPYRA       1447       1     212     213     215     214     352     219+1377
+1377        216     217     218     563     552     492     493        
CPYRA       1448       1     213      27      28     215     353     222+1378
+1378        218     221      87     738     562     494     495        
CPYRA       1449       1     214     215     211     210     354     217+1379
+1379        224     225     226     490     489     666     687        
CPYRA       1450       1     215      28      26     211     355     221+1380
+1380        226     228      90     458     496     989     668        
$---1--][---2--][---3--][---4--][---5--][---6--][---7--][---8--][---9--][--10--]
MAT1           1    2.+57.6923+4    3.-1      0.
$---1--][---2--][---3--][---4--][---5--][---6--][---7--][---8--][---9--][--10--]
PSOLID         1       1       0   THREE    GRID    FULL   SMECH
$---1--][---2--][---3--][---4--][---5--][---6--][---7--][---8--][---9--][--10--]
SPC1           1     123       1
SPC1           1     123       2
SPC1           1     123       3
SPC1           1     123       4
SPC1           1     123       5
SPC1           1     123       6
SPC1           1     123       7
SPC1           1     123       8
SPC1           1     123       9
SPC1           1     123      10
SPC1           1     123      11
SPC1           1     123      12
SPC1           1     123      13
SPC1           1     123      15
SPC1           1     123      16
SPC1           1     123      17
SPC1           1     123      19
SPC1           1     123      20
SPC1           1     123      21
SPC1           1     123      23
SPC1           1     123      24
$---1--][---2--][---3--][---4--][---5--][---6--][---7--][---8--][---9--][--10--]
PLOAD4         1    1447    5.-1                             212     218+1381
+1381          0   -1.+0      0.      0.
PLOAD4         1    1448    5.-1                             213      87+1382
+1382          0   -1.+0      0.      0.
PLOAD4         1    1449    5.-1                             214     226+1383
+1383          0   -1.+0      0.      0.
PLOAD4         1    1450    5.-1                             215      90+1384
+1384          0   -1.+0      0.      0.
PLOAD4         2    1447    5.-1                             212     218+1385
+1385          0      0.   -1.+0      0.
PLOAD4         2    1448    5.-1                             213      87+1386
+1386          0      0.   -1.+0      0.
PLOAD4         2    1449    5.-1                             214     226+1387
+1387          0      0.   -1.+0      0.
PLOAD4         2    1450    5.-1                             215      90+1388
+1388          0      0.   -1.+0      0.
PLOAD4         3    1447    5.-1                             212     218+1389
+1389          0      0.      0.   -1.+0
PLOAD4         3    1448    5.-1                             213      87+1390
+1390          0      0.      0.   -1.+0
PLOAD4         3    1449    5.-1                             214     226+1391
+1391          0      0.      0.   -1.+0
PLOAD4         3    1450    5.-1                             215      90+1392
+1392          0      0.      0.   -1.+0
PLOAD4         4    1447    5.-1                             212     218
PLOAD4         4    1448    5.-1                             213      87
PLOAD4         4    1449    5.-1                             214     226
PLOAD4         4    1450    5.-1                             215      90
ENDDATA
