$ MeshHexaLin.bdf
ID MeshHexaLin.bdf,NASTRAN
SOL 101
APP   DISP
TIME  10000
CEND
  SET 12 = 3,4,7,8,39,99,131,
132,250
SUBCASE 1
  LOAD=1
  SPC=1
  DISP = 12
SUBCASE 2
  LOAD=2
  SPC=1
  DISP = 12
SUBCASE 3
  LOAD=3
  SPC=1
  DISP = 12
SUBCASE 4
  LOAD=4
  SPC=1
  DISP = 12
$
TITLE=Vega Exported Model
BEGIN BULK
PARAM,PRGPST,NO
$---1--][---2--][---3--][---4--][---5--][---6--][---7--][---8--][---9--][--10--]
GRID           1              0.      0.    2.+1
GRID           2              0.      0.      0.
GRID           3            3.+2 3.33-14    2.+1
GRID           4            3.+2 3.33-14      0.
GRID           5              0.   -1.+1    2.+1
GRID           6              0.   -1.+1      0.
GRID           7            3.+2   -1.+1    2.+1
GRID           8            3.+2   -1.+1      0.
GRID           9              0.      0.    1.+1
GRID          10            1.+1      0.    2.+1
GRID          11            2.+1 2.22-15    2.+1
GRID          12            3.+1 3.33-15    2.+1
GRID          13            4.+1 4.44-15    2.+1
GRID          14            5.+1 5.55-15    2.+1
GRID          15            6.+1 6.66-15    2.+1
GRID          16            7.+1 7.77-15    2.+1
GRID          17            8.+1 8.88-15    2.+1
GRID          18            9.+1 9.99-15    2.+1
GRID          19            1.+2 1.11-14    2.+1
GRID          20           1.1+2 1.22-14    2.+1
$ ... 259 like lines cut
$---1--][---2--][---3--][---4--][---5--][---6--][---7--][---8--][---9--][--10--]
CHEXA        385       1       1       9     133      10     130     220+373
+373         251     249        
CHEXA        386       1     130     220     251     249       5      69+374
+374         162      70        
CHEXA        387       1      10     133     134      11     249     251+375
+375         252     248        
CHEXA        388       1     249     251     252     248      70     162+376
+376         163      71        
CHEXA        389       1      11     134     135      12     248     252+377
+377         253     247        
CHEXA        390       1     248     252     253     247      71     163+378
+378         164      72        
CHEXA        391       1      12     135     136      13     247     253+379
+379         254     246        
CHEXA        392       1     247     253     254     246      72     164+380
+380         165      73        
CHEXA        393       1      13     136     137      14     246     254+381
+381         255     245        
CHEXA        394       1     246     254     255     245      73     165+382
+382         166      74        
CHEXA        395       1      14     137     138      15     245     255+383
+383         256     244        
CHEXA        396       1     245     255     256     244      74     166+384
+384         167      75        
CHEXA        397       1      15     138     139      16     244     256+385
+385         257     243        
CHEXA        398       1     244     256     257     243      75     167+386
+386         168      76        
CHEXA        399       1      16     139     140      17     243     257+387
+387         258     242        
CHEXA        400       1     243     257     258     242      76     168+388
+388         169      77        
CHEXA        401       1      17     140     141      18     242     258+389
+389         259     241        
CHEXA        402       1     242     258     259     241      77     169+390
+390         170      78        
CHEXA        403       1      18     141     142      19     241     259+391
+391         260     240        
CHEXA        404       1     241     259     260     240      78     170+392
+392         171      79        
$ ... 200 like lines cut
$---1--][---2--][---3--][---4--][---5--][---6--][---7--][---8--][---9--][--10--]
MAT1           1    2.+57.6923+4    3.-1      0.
$---1--][---2--][---3--][---4--][---5--][---6--][---7--][---8--][---9--][--10--]
PSOLID         1       1       0   THREE    GRID    FULL   SMECH
$---1--][---2--][---3--][---4--][---5--][---6--][---7--][---8--][---9--][--10--]
SPC1           1     123       1
SPC1           1     123       2
SPC1           1     123       5
SPC1           1     123       6
SPC1           1     123       9
SPC1           1     123      69
SPC1           1     123     129
SPC1           1     123     130
SPC1           1     123     220
$---1--][---2--][---3--][---4--][---5--][---6--][---7--][---8--][---9--][--10--]
PLOAD4         1     504    5.-1                             250       8+493
+493           0   -1.+0      0.      0.
PLOAD4         1     444    5.-1                             132      99+494
+494           0   -1.+0      0.      0.
PLOAD4         1     503    5.-1                              39     131+495
+495           0   -1.+0      0.      0.
PLOAD4         1     443    5.-1                               3     250+496
+496           0   -1.+0      0.      0.
PLOAD4         2     504    5.-1                             250       8+497
+497           0      0.   -1.+0      0.
PLOAD4         2     444    5.-1                             132      99+498
+498           0      0.   -1.+0      0.
PLOAD4         2     503    5.-1                              39     131+499
+499           0      0.   -1.+0      0.
PLOAD4         2     443    5.-1                               3     250+500
+500           0      0.   -1.+0      0.
PLOAD4         3     504    5.-1                             250       8+501
+501           0      0.      0.   -1.+0
PLOAD4         3     444    5.-1                             132      99+502
+502           0      0.      0.   -1.+0
PLOAD4         3     503    5.-1                              39     131+503
+503           0      0.      0.   -1.+0
PLOAD4         3     443    5.-1                               3     250+504
+504           0      0.      0.   -1.+0
PLOAD4         4     504    5.-1                             250       8
PLOAD4         4     444    5.-1                             132      99
PLOAD4         4     503    5.-1                              39     131
PLOAD4         4     443    5.-1                               3     250
ENDDATA
