$ MeshTetraLin.bdf
ID MeshTetraLin.bdf,NASTRAN
SOL 101
APP   DISP
TIME  10000
CEND
  SET 9 = 7,8,9,10,11,12,129,
130,131,132,200
SUBCASE 1
  LOAD=1
  SPC=1
  DISP = 9
SUBCASE 2
  LOAD=2
  SPC=1
  DISP = 9
SUBCASE 3
  LOAD=3
  SPC=1
  DISP = 9
SUBCASE 4
  LOAD=4
  SPC=1
  DISP = 9
$
TITLE=Vega Exported Model
BEGIN BULK
PARAM,PRGPST,NO
$---1--][---2--][---3--][---4--][---5--][---6--][---7--][---8--][---9--][--10--]
GRID           1              0.      0.      0.
GRID           2              0.   -1.+1      0.
GRID           3              0.   -5.+0      0.
GRID           4              0.      0.    2.+1
GRID           5              0.   -1.+1    2.+1
GRID           6              0.   -5.+0    2.+1
GRID           7            3.+2 3.33-14      0.
GRID           8            3.+2   -1.+1      0.
GRID           9            3.+2   -5.+0      0.
GRID          10            3.+2 3.33-14    2.+1
GRID          11            3.+2   -1.+1    2.+1
GRID          12            3.+2   -5.+0    2.+1
GRID          13        5.4655+0      0.    2.+1
GRID          14         1.306+1 1.45-15    2.+1
GRID          15        2.3181+1 2.57-15    2.+1
GRID          16        3.3301+1  3.7-15    2.+1
GRID          17        4.4716+1 4.96-15    2.+1
GRID          18        5.5002+1 6.11-15    2.+1
GRID          19        6.5122+1 7.23-15    2.+1
GRID          20        7.5243+1 8.35-15    2.+1
$ ... 184 like lines cut
$---1--][---2--][---3--][---4--][---5--][---6--][---7--][---8--][---9--][--10--]
CTETRA       537       1     168     169     167     184        
CTETRA       538       1      23      22     190      52        
CTETRA       539       1      61      60     178     157        
CTETRA       540       1      74      73     141     170        
CTETRA       541       1      73      74     141     103        
CTETRA       542       1     150      24      53      54        
CTETRA       543       1     180      65      64     161        
CTETRA       544       1     160     196      92     179        
CTETRA       545       1       6      13     168     136        
CTETRA       546       1      79     108     146      78        
CTETRA       547       1      13     139       6     168        
CTETRA       548       1      64     180     161     196        
CTETRA       549       1     105     171     144      76        
CTETRA       550       1     114     176     152     153        
CTETRA       551       1       6     136     168     134        
CTETRA       552       1      92     179     159     160        
CTETRA       553       1     167     138     168     184        
CTETRA       554       1     166     165     183     127        
CTETRA       555       1      20      50     146     189        
CTETRA       556       1      63      62     179     159        
$ ... 392 like lines cut
$---1--][---2--][---3--][---4--][---5--][---6--][---7--][---8--][---9--][--10--]
MAT1           1    2.+57.6923+4    3.-1      0.
$---1--][---2--][---3--][---4--][---5--][---6--][---7--][---8--][---9--][--10--]
PSOLID         1       1       0   THREE    GRID    FULL   SMECH
$---1--][---2--][---3--][---4--][---5--][---6--][---7--][---8--][---9--][--10--]
SPC1           1     123       1
SPC1           1     123       2
SPC1           1     123       3
SPC1           1     123       4
SPC1           1     123       5
SPC1           1     123       6
SPC1           1     123     133
SPC1           1     123     134
SPC1           1     123     135
SPC1           1     123     136
SPC1           1     123     199
$---1--][---2--][---3--][---4--][---5--][---6--][---7--][---8--][---9--][--10--]
PLOAD4         1     609    5.-1                              12      41+1
+1             0   -1.+0      0.      0.
PLOAD4         1     723    5.-1                             130      70+2
+2             0   -1.+0      0.      0.
PLOAD4         1     576    5.-1                             129     128+3
+3             0   -1.+0      0.      0.
PLOAD4         1     638    5.-1                               7      99+4
+4             0   -1.+0      0.      0.
PLOAD4         1     618    5.-1                             200      99+5
+5             0   -1.+0      0.      0.
PLOAD4         1     850    5.-1                              12      41+6
+6             0   -1.+0      0.      0.
PLOAD4         1     615    5.-1                             130     166+7
+7             0   -1.+0      0.      0.
PLOAD4         1     785    5.-1                             132     183+8
+8             0   -1.+0      0.      0.
PLOAD4         1     668    5.-1                             130     166+9
+9             0   -1.+0      0.      0.
PLOAD4         1     695    5.-1                             200     128+10
+10            0   -1.+0      0.      0.
PLOAD4         2     609    5.-1                              12      41+11
+11            0      0.   -1.+0      0.
PLOAD4         2     723    5.-1                             130      70+12
+12            0      0.   -1.+0      0.
PLOAD4         2     576    5.-1                             129     128+13
+13            0      0.   -1.+0      0.
PLOAD4         2     638    5.-1                               7      99+14
+14            0      0.   -1.+0      0.
PLOAD4         2     618    5.-1                             200      99+15
+15            0      0.   -1.+0      0.
PLOAD4         2     850    5.-1                              12      41+16
+16            0      0.   -1.+0      0.
PLOAD4         2     615    5.-1                             130     166+17
+17            0      0.   -1.+0      0.
PLOAD4         2     785    5.-1                             132     183+18
+18            0      0.   -1.+0      0.
PLOAD4         2     668    5.-1                             130     166+19
+19            0      0.   -1.+0      0.
PLOAD4         2     695    5.-1                             200     128+20
+20            0      0.   -1.+0      0.
$ ... 21 like lines cut
PLOAD4         4     723    5.-1                             130      70
PLOAD4         4     576    5.-1                             129     128
PLOAD4         4     638    5.-1                               7      99
PLOAD4         4     618    5.-1                             200      99
PLOAD4         4     850    5.-1                              12      41
PLOAD4         4     615    5.-1                             130     166
PLOAD4         4     785    5.-1                             132     183
PLOAD4         4     668    5.-1                             130     166
PLOAD4         4     695    5.-1                             200     128
ENDDATA
