SOL 106
TIME 600
CEND
TITLE = Non-Linear Gap Element with Non-Coincedent Nodes
ECHO = NONE
MAXLINES = 999999999
SUBCASE 1
   NLPARM = 1
   SPC = 1
   LOAD = 1
   DISPLACEMENT=ALL
BEGIN BULK
PARAM    AUTOSPC NO
PARAM    WTMASS  1.
PARAM    LGDISP  -1
PARAM,NOCOMPS,-1
NLPARM   1       10              AUTO    5       25      PW      NO     +      A
+      A         .001    1.-7
PBEAML   1       1               I                                      +      B
+      B 2.      1.      1.      .1      .1      .1              YES    +      C
+      C 1.      2.      1.      1.      .1      .1      .1
CBEAM    1       1       1       2       0.      1.      0.
CBEAM    2       1       2       3       0.      1.      0.
CBEAM    3       1       3       4       0.      1.      0.
CBEAM    4       1       4       5       0.      1.      0.
CBEAM    5       1       5       6       0.      1.      0.
CBEAM    6       1       6       7       0.      1.      0.
CBEAM    7       1       7       8       0.      1.      0.
CBEAM    8       1       8       9       0.      1.      0.
CBEAM    9       1       9       10      0.      1.      0.
CBEAM    10      1       10      11      0.      1.      0.
PGAP     2       .2              1.+7
CGAP     100     2       6       12      1.      0.      0.
MAT1     1       1.+7            .3      .101
GRID     1               0.      0.      0.
GRID     2               5.      0.      0.
GRID     3               10.     0.      0.
GRID     4               15.     0.      0.
GRID     5               20.     0.      0.
GRID     6               25.     0.      0.
GRID     7               30.     0.      0.
GRID     8               35.     0.      0.
GRID     9               40.     0.      0.
GRID     10              45.     0.      0.
GRID     11              50.     0.      0.
GRID     12              25.    -.2      0.
SPC1     1       123456  1       12
FORCE    1       9       0       50.     0.     -1.      0.
ENDDATA