$$
$$ Optistruct Input Deck Generated by HyperMesh Version  : 13.0.110.31
$$ Generated using HyperMesh-Optistruct Template Version : 13.0.110
$$
$$   Template:  optistruct
$$
$$
$$ optistruct
$
FORMAT H3D     
OUTPUT,HTML,,NO
$$------------------------------------------------------------------------------$
$$                      Case Control Cards                                      $
$$------------------------------------------------------------------------------$
$OSDIAG,21,4,0.0
$OSDIAG,41,4,0.0
OSDIAG,146,3,0.0
OSDIAG,147,4,0.0
$SCREEN OUT                                                                     
$
$HMNAME LOADSTEP               1"steady_state_thermal"      12
$
SUBCASE       1
  LABEL waermeuebertragung
ANALYSIS STATICS
$ANALYSIS HEAT
  SPC =        7
  LOAD =        8
  FLUX(H3D) = ALL
  THERMAL = ALL
$$--------------------------------------------------------------
$$ HYPERMESH TAGS 
$$--------------------------------------------------------------
$$BEGIN TAGS
$$END TAGS
$
BEGIN BULK
$$
$$  Stacking Information for Ply-Based Composite Definition
$$




$$
$HMNAME CSURF                  1"Koerper-A2" "SURF"
$HWCOLOR CSURF                 1      47
$$
$$  SURF Data
$$
SURF           1ELFACE  
+           2001    2693    2695       1
+           2621    2760    2696       1
+           2291    2756    2759       1
+           2861    2755    2757       1
+           2451    2754    2768       1
+           2171    2753    2762       1
+           2551    2750    2764       1
+           2501    2751    2763       1
+           2471    2783    2752       1
+           2081    2784    2781       1
+           2581    2778    2782       1
+           2801    2770    2784       1
+           2891    2769    2778       1
+           2811    2770    2774       1
+           2401    2769    2665       1
+           2981    2774    2664       1
+           2371    2773    2703       1
+           2931    2775    2702       1
+           2211    2776    2701       1
+           2951    2772    2775       1
$ ... 80 like lines cut

$
$$
$HMNAME CSURF                  3"Koerper-B2" "SURF"
$HWCOLOR CSURF                 3      49
SURF           3ELFACE  
+           3001    4086    4084       1
+           3231    4087    4019       1
+           3601    4023    4088       1
+           3761    4024    4012       1
+           3411    4011    4014       1
+           3661    4075    4013       1
+           3901    4074    4018       1
+           3871    4073    4016       1
+           3721    4058    4072       1
+           3121    4061    4057       1
+           3911    4062    4066       1
+           3241    4051    4065       1
+           3941    4052    4064       1
+           3821    4032    4063       1
+           3691    4031    4034       1
+           3641    4101    4033       1
+           3041    4102    4038       1
+           3681    4103    4036       1
+           3651    4035    4038       1
+           3531    4107    4036       1
$ ... 80 like lines cut

$
$$
$HMNAME GROUP                  2"Koerper-A Koerper-B_PCONTHT_TPID" "CONTACT"
$HWCOLOR GROUP                 2       1
$$
$$  CONTACT Data
$$
CONTACT        2       3       1       3                        
$+            N2S
$
$$
$$  GRID Data
$$
GRID        2663        0.0     0.0     100.0                           
GRID        2664        0.0     300.0   -50.0                           
GRID        2665        0.0     300.0   -40.0                           
GRID        2666        0.0     300.0   -30.0                           
GRID        2667        0.0     300.0   -20.0                           
GRID        2668        0.0     300.0   -10.0                           
GRID        2669        0.0     300.0   0.0                             
GRID        2670        0.0     300.0   10.0                            
GRID        2671        0.0     300.0   20.0                            
GRID        2672        0.0     300.0   30.0                            
GRID        2673        0.0     300.0   40.0                            
GRID        2674        0.0     300.0   50.0                            
GRID        2675        0.0     290.0   50.0                            
GRID        2676        0.0     280.0   50.0                            
GRID        2677        0.0     270.0   50.0                            
GRID        2678        0.0     260.0   50.0                            
GRID        2679        0.0     250.0   50.0                            
GRID        2680        0.0     240.0   50.0                            
GRID        2681        0.0     230.0   50.0                            
GRID        2682        0.0     220.0   50.0                            
$ ... 2643 like lines cut
$
$  CHEXA Elements: First Order
$       
CHEXA       2001       1    2693    2760    2695    2694    2785    2788
+           2787    2786
CHEXA       2002       1    2785    2788    2787    2786    2789    2792
+           2791    2790
CHEXA       2003       1    2789    2792    2791    2790    2793    2796
+           2795    2794
CHEXA       2004       1    2793    2796    2795    2794    2797    2800
+           2799    2798
CHEXA       2005       1    2797    2800    2799    2798    2801    2804
+           2803    2802
CHEXA       2006       1    2801    2804    2803    2802    2805    2808
+           2807    2806
CHEXA       2007       1    2805    2808    2807    2806    2809    2812
+           2811    2810
CHEXA       2008       1    2809    2812    2811    2810    2813    2816
+           2815    2814
CHEXA       2009       1    2813    2816    2815    2814    2817    2820
+           2819    2818
CHEXA       2010       1    2817    2820    2819    2818    2821    2824
+           2823    2822
CHEXA       2011       1    2780    2778    2777    2779    2825    2828
+           2827    2826
CHEXA       2012       1    2825    2828    2827    2826    2829    2832
+           2831    2830
CHEXA       2013       1    2829    2832    2831    2830    2833    2836
+           2835    2834
CHEXA       2014       1    2833    2836    2835    2834    2837    2840
+           2839    2838
CHEXA       2015       1    2837    2840    2839    2838    2841    2844
+           2843    2842
CHEXA       2016       1    2841    2844    2843    2842    2845    2848
+           2847    2846
CHEXA       2017       1    2845    2848    2847    2846    2849    2852
+           2851    2850
CHEXA       2018       1    2849    2852    2851    2850    2853    2856
+           2855    2854
CHEXA       2019       1    2853    2856    2855    2854    2857    2860
+           2859    2858
CHEXA       2020       1    2857    2860    2859    2858    2861    2864
+           2863    2862
$ ... 3960 like lines cut
$
$HMMOVE        3
$           2001THRU        3000
$       
$
$HMMOVE        4
$           3001THRU        4000
$       
$$
$$------------------------------------------------------------------------------$
$$    HyperMesh name and color information for generic components               $
$$------------------------------------------------------------------------------$
$HMNAME COMP                   1"Koerper-A_merged"        1 "PSOLID" 5 
$HWCOLOR COMP                  1      25
$
$HMNAME COMP                   2"Koerper-B_merged"        1 "PSOLID" 5 
$HWCOLOR COMP                  2      21
$
$HMNAME COMP                   3"Koerper-A_PCONTHT_K"        1 "PSOLID" 5 
$HWCOLOR COMP                  3      37
$
$HMNAME COMP                   4"Koerper-B_PCONTHT_K"        1 "PSOLID" 5 
$HWCOLOR COMP                  4      62
$

$

$
$$
$$  PSOLID Data
$$
$                                                                              
$                                                                              
$                                                                              
$                                                                              
$                                                                              
$                                                                              
$                                                                              
$                                                                              
$HMNAME PROP                   1"PSOLID" 5
$HWCOLOR PROP                  1      11
PSOLID         1       1                                        
$$
$$  PCONT Data
$$
$HMNAME PROP                   3"PCONT" 6
$HWCOLOR PROP                  3      11
PCONT          3        AUTO                    0.0     
+               
$PCONTHT        3   540.0                        
PCONTHT        3                              10
$$
$$  TABLED1 cards
$$
$HMNAME LOADCOL               10"tcid"
$HWCOLOR LOADCOL              10      11
TABLED1       10  LINEAR  LINEAR
+            0.0   440.0     1.0    20.0ENDT    
$
$$
$$  MAT4 Data
$$
$HMNAME MAT                    1"Stahl" "MAT4"
$HWCOLOR MAT                   1      12
MAT4           1    40.5   4.3+8  7.85-9                        

$$
$$------------------------------------------------------------------------------$
$$ HyperMesh Commands for loadcollectors name and color information $
$$------------------------------------------------------------------------------$
$HMNAME LOADCOL                7"SPC_0degree"
$HWCOLOR LOADCOL               7       6
$$
$HMNAME LOADCOL                8"Qvol"
$HWCOLOR LOADCOL               8       4
$$
$$
$$  SPC Data
$$
SPC            7    2821        0.0     
SPC            7    2822        0.0     
SPC            7    2823        0.0     
SPC            7    2824        0.0     
SPC            7    2861        0.0     
SPC            7    2862        0.0     
SPC            7    2863        0.0     
SPC            7    2864        0.0     
SPC            7    2901        0.0     
SPC            7    2902        0.0     
SPC            7    2903        0.0     
SPC            7    2904        0.0     
SPC            7    2932        0.0     
SPC            7    2933        0.0     
SPC            7    2934        0.0     
SPC            7    2971        0.0     
SPC            7    2972        0.0     
SPC            7    2973        0.0     
SPC            7    2974        0.0     
SPC            7    3011        0.0     
$ ... 101 like lines cut
$$
$$
$$
$$  TLOAD1 cards
$$
$HMNAME LOADCOL                9"tload"
$HWCOLOR LOADCOL               9       7
TLOAD1         9       8            LOAD      10
$$
$$
$$
$$  TSTEP cards
$$
$HMNAME LOADCOL                4"TSTEP"
$HWCOLOR LOADCOL               4      62
$$
TSTEP          41000    10.0    1                       
$$
$$  QVOL Data
$$
QVOL           81.0                 3010
QVOL           81.0                 3020
QVOL           81.0                 3030
QVOL           81.0                 3040
QVOL           81.0                 3050
QVOL           81.0                 3060
QVOL           81.0                 3070
QVOL           81.0                 3080
QVOL           81.0                 3090
QVOL           81.0                 3100
QVOL           81.0                 3110
QVOL           81.0                 3120
QVOL           81.0                 3130
QVOL           81.0                 3140
QVOL           81.0                 3150
QVOL           81.0                 3160
QVOL           81.0                 3170
QVOL           81.0                 3180
QVOL           81.0                 3190
QVOL           81.0                 3200
$ ... 80 like lines cut
ENDDATA
$$
$$------------------------------------------------------------------------------$$
$$        Data Definition for AutoDV                                            $$
$$------------------------------------------------------------------------------$$
$$
$$-----------------------------------------------------------------------------$$
$$        Design Variables Card for Control Perturbations                      $$
$$-----------------------------------------------------------------------------$$
$
$------------------------------------------------------------------------------$
$        Domain Element Definitions                                            $
$------------------------------------------------------------------------------$
$$
$$------------------------------------------------------------------------------$$
$$            Nodeset Definitions                                               $$
$$------------------------------------------------------------------------------$$
$$  Design domain node sets
$$
$$------------------------------------------------------------------------------$$
$$            Control Perturbation                                              $$
$$------------------------------------------------------------------------------$$
$$
$$
$$  CONTROL PERTURBATION Data
$$
