ASSIGN OUTPUT2 = ’prob1c.op2’ ,UNIT=12
ID NAS103,WORKSHOP 1C SOLUTION
TIME 10
SOL 106 $ NONLIN
CEND
TITLE=SIMPLE ROD SPRING - COLD ANALYSIS AND RESTART WORKSHOP
SUBTITLE=GEOMETRIC NONLINEAR
ECHO=BOTH
DISP=ALL
OLOAD=ALL
FORCE=ALL$
SPCF=ALL
$ APPLY X LOAD
$
SUBCASE 10 $ LOAD=16.E03
 LABEL=APPLY LOAD P IN X DIRECTION = 16E+03
 LOAD=1
 NLPARM=10
SUBCASE 20 $ LOAD=24.E03
 LABEL=APPLY LOAD P IN X DIRECTION = 24E+03
 LOAD=2
 NLPARM=20
SUBCASE 30 $ LOAD=29.E03
 LABEL=APPLY LOAD P IN X DIRECTION = 29E+03
 LOAD=3
 NLPARM=30
OUTPUT(PLOT)
 SET 1 ALL
 MAXI DEFO 5.
 AXES Z,X,Y
 VIEW 0.,0.,0.
 FIND SCALE ORIGIN 1 SET 1
 PLOT STATIC 0 MAXIMUM DEFORMATION 5. SET 1
BEGIN BULK
PARAM,POST,-1
PARAM,PATVER,3.0
GRID,1,0,0.0,0.0,0.0,,23456
GRID,3,0,0.0,10.0,0.0,,123456
CROD,3,3,3,1
CELAS1,2,2,1,1,0
PROD,3,3,.01
PELAS,2,1.0E3
MAT1,3,1.0E7
FORCE,1,1,0,1.6E4,1.0
FORCE,2,1,0,2.4E4,1.0
FORCE,3,1,0,2.9E4,1.0
PARAM,LGDISP,1
NLPARM,10,4,,SEMI,,,,YES,+
+,,,,,0,0,,,+
+,0
NLPARM,20,8,,AUTO,,,W,YES
NLPARM,30,2
ENDDATA
