ASSIGN OUTPUT2 = ‘prob3.op2’, UNIT = 12
ID NAS103, WORKSHOP 3 SOLUTION
TIME 10
SOL 106
CEND
TITLE=GEOMETRIC NONLINEAR PROBLEM
SUBTITLE=REF: POWELL AND SIMONS, IJNME, 17:1455-1467, 1981
DISP=ALL
SPCF=ALL
OLOAD=ALL
SPC=12
LOAD=10
SUBCASE 10
NLPARM=10
BEGIN BULK
$ GEOMETRY
GRDSET,,,,,,,3456
GRID,1,,0.0,0.
GRID,2,,5.,0.
GRID,3,,10.,3.
GRID,4,,10.,8.
$ CONNECTIVITY
CONROD,1,1,2,10,.5
CONROD,2,2,3,11,1.
CONROD,3,3,4,11,1.
$ PROPERTIES
MAT1,10,1.+6
MAT1,11,3.+6
$ CONSTRAINTS
SPC1,12,1,3
SPC1,12,2,1,2
SPC1,12,12,4
$ LOADING
FORCE,10,1,,4.+5,1.,0.,0.
$ PARAMETERS
PARAM,POST,0
$ SOLUTION STRATEGY
NLPARM,10,40,,,,,,YES
$NLPCI,10
PARAM,LGDISP,1
ENDDATA
