
$ cantibox.mail
SOL 111
DIAG 8
TIME 10000
CEND
$
TITLE=Vega Exported Model
LABEL=Box
METHOD=100
FREQUENCY = 100
SDAMPING = 100
$RESVEC(NOINRL,APPLOAD,NORVDOF) = YES
RESVEC(NOINRL,APPLOAD) = YES
$RESVEC = NO
SET 111 = 6
ECHO=NONE
DISPLACEMENT=111
$FORCE=111
$SPCFORCE=ALL
$STRESS=ALL
SUBCASE 1
    SPC=1
    DLOAD=100

BEGIN BULK
PARAM,COUPMASS,0

$---1--][---2--][---3--][---4--][---5--][---6--][---7--][---8--][---9--][--10--]
EIGRL, 100, 0.5, 80.
$---1--][---2--][---3--][---4--][---5--][---6--][---7--][---8--][---9--][--10--]
GRDSET                                                   456
GRID           1             0.0     0.0     0.0
GRID           2             0.0     0.0    0.25
GRID           3             0.0     0.5    0.25
GRID           4             0.0     0.5     0.0
GRID           5            10.0     0.0     0.0
GRID           6            10.0     0.0    0.25
GRID           7            10.0     0.5    0.25
GRID           8            10.0     0.5     0.0
GRID           9             0.0     0.0     0.5
GRID          10             0.0     0.5     0.5
GRID          11            10.0     0.0     0.5
GRID          12            10.0     0.5     0.5
GRID          13             0.0     1.0    0.25
GRID          14             0.0     1.0     0.0
GRID          15            10.0     1.0    0.25
GRID          16            10.0     1.0     0.0
GRID          17             0.0     1.0     0.5
GRID          18            10.0     1.0     0.5
GRID          19             0.0     0.00.083333
GRID          20             0.0     0.0 0.16667
$ ... 7757 like lines cut

$---1--][---2--][---3--][---4--][---5--][---6--][---7--][---8--][---9--][--10--]

CHEXA       5917       1       2      24     986      20      33    1583+       
+           4610    1187
CHEXA       5918       1      33    1583    4610    1187      34    1579+       
+           4611    1186
CHEXA       5919       1      34    1579    4611    1186      35    1575+       
+           4612    1185
CHEXA       5920       1      35    1575    4612    1185      36    1571+       
+           4613    1184
CHEXA       5921       1      36    1571    4613    1184      37    1567+       
+           4614    1183
CHEXA       5922       1      37    1567    4614    1183      38    1563+       
+           4615    1182
CHEXA       5923       1      38    1563    4615    1182      39    1559+       
+           4616    1181
CHEXA       5924       1      39    1559    4616    1181      40    1555+       
+           4617    1180
CHEXA       5925       1      40    1555    4617    1180      41    1551+       
+           4618    1179
CHEXA       5926       1      41    1551    4618    1179      42    1547+       
+           4619    1178
CHEXA       5927       1      42    1547    4619    1178      43    1543+       
+           4620    1177
CHEXA       5928       1      43    1543    4620    1177      44    1539+       
+           4621    1176
CHEXA       5929       1      44    1539    4621    1176      45    1535+       
+           4622    1175
CHEXA       5930       1      45    1535    4622    1175      46    1531+       
+           4623    1174
CHEXA       5931       1      46    1531    4623    1174      47    1527+       
+           4624    1173
CHEXA       5932       1      47    1527    4624    1173      48    1523+       
+           4625    1172
CHEXA       5933       1      48    1523    4625    1172      49    1519+       
+           4626    1171
CHEXA       5934       1      49    1519    4626    1171      50    1515+       
+           4627    1170
CHEXA       5935       1      50    1515    4627    1170      51    1511+       
+           4628    1169
CHEXA       5936       1      51    1511    4628    1169      52    1507+       
+           4629    1168
$ ... 11960 like lines cut

$---1--][---2--][---3--][---4--][---5--][---6--][---7--][---8--][---9--][--10--]



SPC1           1     123       1
SPC1           1     123      19
SPC1           1     123     982
SPC1           1     123      27
SPC1           1     123      27
SPC1           1     123     982
SPC1           1     123     983
SPC1           1     123      28
SPC1           1     123      28
SPC1           1     123     983
SPC1           1     123     984
SPC1           1     123      29
SPC1           1     123      29
SPC1           1     123     984
SPC1           1     123     985
SPC1           1     123      30
SPC1           1     123      30
SPC1           1     123     985
SPC1           1     123      25
SPC1           1     123       4
$ ... 220 like lines cut

$---1--][---2--][---3--][---4--][---5--][---6--][---7--][---8--][---9--][--10--]

PSOLID         1       1       0   THREE   GRID    FULL    SMECH

MAT1           1   2e+11             0.3  7830.0

$---1--][---2--][---3--][---4--][---5--][---6--][---7--][---8--][---9--][--10--]

$---1--][---2--][---3--][---4--][---5--][---6--][---7--][---8--][---9--][--10--]
$
$ SPECIFY MODAL DAMPING
$
TABDMP1, 100, CRIT,
+, 0., .03, 10., .03, ENDT
$
$ POINT LOAD
$
$ IF 'DAREA' CARDS ARE REFERENCED, THEN
$ 'DPHASE' AND 'DELAY' CAN BE USED
$
DAREA, 600, 7, 3, -1E8
$
TABLED1, 310,,
, 10., 1., 1000., 1., ENDT
RLOAD2, 100, 600, , , 310
$
$ SPECIFY FREQUENCY STEPS
$
FREQ1, 100, 2, 3.8, 10
ENDDATA
