SOL 106
DIAG 8
TIME 10000
CEND
$
TITLE=Vega Exported Model

SUBCASE 1

LOAD=2
SPC=1
NLPARM=42
BCONTACT=2

BEGIN BULK

NLPARM        42       1

$---1--][---2--][---3--][---4--][---5--][---6--][---7--][---8--][---9--][--10--]

GRID           1          39.092  68.826     0.0
GRID           2          35.355  64.645     0.0
GRID           3           43.75   100.0     0.0
GRID           4            50.0   100.0     0.0
GRID           5          5.6058  93.984     0.0
GRID           6          10.177  95.906     0.0
GRID           7          14.973  96.091     0.0
GRID           8          19.274   95.07     0.0
GRID           9          23.391  96.293     0.0
GRID          10          28.317  96.367     0.0
GRID          11          33.649   95.72     0.0
GRID          12           38.24  95.642     0.0
GRID          13          41.982  96.654     0.0
GRID          14          44.817   94.39     0.0
GRID          15          44.954  91.032     0.0
GRID          16          43.665  86.418     0.0
GRID          17          42.702  81.662     0.0
GRID          18          40.688  77.368     0.0
GRID          19          38.341  73.358     0.0
GRID          20           36.41  70.531     0.0
$ ... 3678 like lines cut

$---1--][---2--][---3--][---4--][---5--][---6--][---7--][---8--][---9--][--10--]

CPENTA       721       1    1864    1865    1907    2073    2074    2219
CPENTA       722       1    1865    1866    1907    2074    2220    2219
CPENTA       723       1    1857    1858    1908    2221    2068    2222
CPENTA       724       1    1858    1859    1908    2068    2067    2222
CPENTA       725       1    1910    1909    1851    2223    2224    2225
CPENTA       726       1    1911    1910    1851    2226    2223    2225
CPENTA       727       1    1911    1851    1852    2226    2225    2227
CPENTA       728       1    1912    1911    1852    2228    2226    2227
CPENTA       729       1    1912    1852    1853    2228    2227    2229
CPENTA       730       1    1913    1912    1853    2230    2228    2229
CPENTA       731       1    1914    1913    1853    2231    2230    2229
CPENTA       732       1    1914    1853    1854    2231    2229    2232
CPENTA       733       1    1915    1914    1854    2233    2231    2232
CPENTA       734       1    1915    1854    1855    2233    2232    2234
CPENTA       735       1    1916    1915    1855    2235    2233    2234
CPENTA       736       1    1916    1855    1856    2235    2234    2236
CPENTA       737       1    1917    1916    1856    2237    2235    2236
CPENTA       738       1    1918    1917    1856    2238    2237    2236
CPENTA       739       1    1918    1856    1857    2238    2236    2221
CPENTA       740       1    1918    1857    1908    2238    2221    2222
$ ... 5852 like lines cut
CPYRAM       497       1    1851    1909    2224    2225    1850
CPYRAM       498       1    1939    1883    2276    2275    1885
CPYRAM       499       1    1940    1939    2275    2287    1885
CPYRAM       500       1    1941    1940    2287    2289    1886
CPYRAM       501       1    1942    1941    2289    2291    1887
CPYRAM       502       1    1910    1942    2291    2223    1888
CPYRAM       503       1    1910    1909    2224    2223    1888
CPYRAM       504       1    1883    2001    2338    2276    1884
CPYRAM       505       1    2001    2012    2349    2338    1906
CPYRAM       506       1    2012    2023    2360    2349    1905
CPYRAM       507       1    2023    2034    2371    2360    1904
CPYRAM       508       1    2034    2045    2382    2371    1903
CPYRAM       509       1    2045    2056    2393    2382    1902
CPYRAM       510       1    2056    1899    2085    2393    1901
CPYRAM       511       1    2225    2224    2409    2410    1850
CPYRAM       512       1    2275    2276    2461    2460    1885
CPYRAM       513       1    2287    2275    2460    2472    1885
CPYRAM       514       1    2289    2287    2472    2474    1886
CPYRAM       515       1    2291    2289    2474    2476    1887
CPYRAM       516       1    2223    2291    2476    2408    1888
$ ... 204 like lines cut
CQUAD4        17       1    1858    1859    2067    2068
CQUAD4        18       1    1859    1860    2069    2067
CQUAD4        19       1    1860    1861    2070    2069
CQUAD4        20       1    1861    1862    2071    2070
CQUAD4        21       1    1862    1863    2072    2071
CQUAD4        22       1    1863    1864    2073    2072
CQUAD4        23       1    1864    1865    2074    2073
CQUAD4        24       1    1865    1889    2075    2074
CQUAD4        25       1    1889    1890    2076    2075
CQUAD4        26       1    1890    1891    2077    2076
CQUAD4        27       1    1891    1892    2078    2077
CQUAD4        28       1    1892    1893    2079    2078
CQUAD4        29       1    1893    1894    2080    2079
CQUAD4        30       1    1894    1895    2081    2080
CQUAD4        31       1    1895    1896    2082    2081
CQUAD4        32       1    1896    1897    2083    2082
CQUAD4        33       1    1897    1898    2084    2083
CQUAD4        34       1    1898    1899    2085    2084
CQUAD4        35       1    2068    2067    2086    2087
CQUAD4        36       1    2067    2069    2088    2086
$ ... 268 like lines cut
CTETRA       305       1    1883    1884    1885    2276
CTETRA       306       1    1888    1850    1909    2224
CTETRA       307       1    1940    1885    1886    2287
CTETRA       308       1    1941    1886    1887    2289
CTETRA       309       1    1942    1887    1888    2291
CTETRA       310       1    1884    2001    1906    2338
CTETRA       311       1    1906    2012    1905    2349
CTETRA       312       1    1905    2023    1904    2360
CTETRA       313       1    1904    2034    1903    2371
CTETRA       314       1    1903    2045    1902    2382
CTETRA       315       1    1902    2056    1901    2393
CTETRA       316       1    1901    1899    1900    2085
CTETRA       317       1    2276    1884    1885    2461
CTETRA       318       1    1888    1850    2224    2409
CTETRA       319       1    2287    1885    1886    2472
CTETRA       320       1    2289    1886    1887    2474
CTETRA       321       1    2291    1887    1888    2476
CTETRA       322       1    1884    2338    1906    2523
CTETRA       323       1    1906    2349    1905    2534
CTETRA       324       1    1905    2360    1904    2545
$ ... 172 like lines cut
CTRIA3         1       1    1899    1900    2085
CTRIA3         2       1    2085    1900    2104
CTRIA3         3       1    2104    1900    2123
CTRIA3         4       1    2123    1900    2142
CTRIA3         5       1    2142    1900    2161
CTRIA3         6       1    2161    1900    2180
CTRIA3         7       1    2180    1900    2199
CTRIA3         8       1    2199    1900    2218
CTRIA3         9       1    1625    1849    1626
CTRIA3        10       1    1626    1849    1627
CTRIA3        11       1    1627    1849    1628
CTRIA3        12       1    1628    1849    1629
CTRIA3        13       1    1629    1849    1630
CTRIA3        14       1    1630    1849    1631
CTRIA3        15       1    1631    1849    1632
CTRIA3        16       1    1632    1849    1836

$---1--][---2--][---3--][---4--][---5--][---6--][---7--][---8--][---9--][--10--]


BCTABLE        2       6       7
$ slave
BCBODY         6                       4
BSURF          4       1       2       3       4       5       6       7+
+              8      17      18      19      20      21      22      23+
+             24      25      26      27      28      29      30      31+
+             32      33      34      35      36      37      38      39+
+             40      41      42      43      44      45      46      47+
+             48      49      50      51      52      53      54      55+
+             56      57      58      59      60      61      62      63+
+             64      65      66      67      68      69      70      71+
+             72      73      74      75      76      77      78      79+
+             80      81      82      83      84      85      86      87+
+             88      89      90      91      92      93      94      95+
+             96      97      98      99     100     101     102     103+
+            104     105     106     107     108     109     110     111+
+            112     113     114     115     116     117     118     119+
+            120     121     122     123     124     125     126     127+
+            128     129     130     131     132     133     134     135+
+            136     137     138     139     140     141     142     143+
+            144     145     146     147     148     149     150     151+
+            152     153     154     155     156     157     158     159+
+            160
$ master
BCBODY         7                       5
BSURF          5       9      10      11      12      13      14      15+
+             16     161     162     163     164     165     166     167+
+            168     169     170     171     172     173     174     175+
+            176     177     178     179     180     181     182     183+
+            184     185     186     187     188     189     190     191+
+            192     193     194     195     196     197     198     199+
+            200     201     202     203     204     205     206     207+
+            208     209     210     211     212     213     214     215+
+            216     217     218     219     220     221     222     223+
+            224     225     226     227     228     229     230     231+
+            232     233     234     235     236     237     238     239+
+            240     241     242     243     244     245     246     247+
+            248     249     250     251     252     253     254     255+
+            256     257     258     259     260     261     262     263+
+            264     265     266     267     268     269     270     271+
+            272     273     274     275     276     277     278     279+
+            280     281     282     283     284     285     286     287+
+            288     289     290     291     292     293     294     295+
+            296     297     298     299     300     301     302     303+
+            304


SPCD           2    1575       2    -2.0
SPCD           2    1814       2    -2.0
SPCD           2       3       2    -2.0
SPCD           2    1548       2    -2.0
SPCD           2    1600       2    -2.0
SPCD           2    1407       2    -2.0
SPCD           2    1571       2    -2.0
SPCD           2    1054       2    -2.0
SPCD           2    1488       2    -2.0
SPCD           2    1517       2    -2.0
SPCD           2    1572       2    -2.0
SPCD           2    1403       2    -2.0
SPCD           2     354       2    -2.0
SPCD           2     878       2    -2.0
SPCD           2    1599       2    -2.0
SPCD           2    1404       2    -2.0
SPCD           2    1463       2    -2.0
SPCD           2    1433       2    -2.0
SPCD           2       4       2    -2.0
SPCD           2    1601       2    -2.0
$ ... 53 like lines cut

SPCD           2    3335       2     2.0
SPCD           2    1854       2     2.0
SPCD           2    2597       2     2.0
SPCD           2    2780       2     2.0
SPCD           2    3522       2     2.0
SPCD           2    2789       2     2.0
SPCD           2    2412       2     2.0
SPCD           2    2606       2     2.0
SPCD           2    2961       2     2.0
SPCD           2    2234       2     2.0
SPCD           2    3152       2     2.0
SPCD           2    3337       2     2.0
SPCD           2    2406       2     2.0
SPCD           2    2225       2     2.0
SPCD           2    2602       2     2.0
SPCD           2    3529       2     2.0
SPCD           2    2417       2     2.0
SPCD           2    1853       2     2.0
SPCD           2    2221       2     2.0
SPCD           2    3531       2     2.0
$ ... 53 like lines cut

SPC1           1       1    1684
SPC1           1       1    3643
SPC1           1       1    3692
SPC1           1       1    1772
SPC1           1       1    2215
SPC1           1       1    1754
SPC1           1       1    3691
SPC1           1       1    3596
SPC1           1       1    1653
SPC1           1       1    1708
SPC1           1       1    1694
SPC1           1       1    3578
SPC1           1       1    1888
SPC1           1       1    1820
SPC1           1       1    2203
SPC1           1       1    1696
SPC1           1       1    3668
SPC1           1       1    1799
SPC1           1       1    3520
SPC1           1       1    1717
$ ... 414 like lines cut

SPC1           1       3    1854
SPC1           1       3    1986
SPC1           1       3    1943
SPC1           1       3     166
SPC1           1       3    1403
SPC1           1       3       6
SPC1           1       3    1929
SPC1           1       3     152
SPC1           1       3    1888
SPC1           1       3    2055
SPC1           1       3      71
SPC1           1       3      98
SPC1           1       3      27
SPC1           1       3    1877
SPC1           1       3    1964
SPC1           1       3    2021
SPC1           1       3    1890
SPC1           1       3    2047
SPC1           1       3     175
SPC1           1       3      56
$ ... 414 like lines cut


$---1--][---2--][---3--][---4--][---5--][---6--][---7--][---8--][---9--][--10--]


$---1--][---2--][---3--][---4--][---5--][---6--][---7--][---8--][---9--][--10--]
PSOLID         1       1       0   THREE    GRID    FULL   SMECH
MAT1           1 20000.0            0.3

$---1--][---2--][---3--][---4--][---5--][---6--][---7--][---8--][---9--][--10--]


ENDDATA
