BEGIN BULK

SURF           1ELFACE
+              1      13      12       1

SURF           2ELFACE
+              5      17      16       1

CONTACT        1   SLIDE       1       2

PSHELL   1       1       .1      1               1
CQUAD4   1       1       1       2       13      12
CQUAD4   2       1       2       3       14      13
CQUAD4   3       1       3       4       15      14
CQUAD4   4       1       4       5       16      15
CQUAD4   5       1       5       6       17      16
CQUAD4   6       1       6       7       18      17
CQUAD4   7       1       7       8       19      18
CQUAD4   8       1       8       9       20      19
CQUAD4   9       1       9       10      21      20
CQUAD4   10      1       10      11      22      21
CQUAD4   11      1       12      13      24      23
CQUAD4   12      1       13      14      25      24
CQUAD4   13      1       14      15      26      25
CQUAD4   14      1       15      16      27      26
CQUAD4   15      1       16      17      28      27
CQUAD4   16      1       17      18      29      28
CQUAD4   17      1       18      19      30      29
CQUAD4   18      1       19      20      31      30
CQUAD4   19      1       20      21      32      31
CQUAD4   20      1       21      22      33      32
$ ... 20 like lines cut
$
MAT1     1       3.+7            .3      .282
$
GRID     1               0.      0.      0.
GRID     2               .5      0.      0.
GRID     3               1.      0.      0.
GRID     4               1.5     0.      0.
GRID     5               2.      0.      0.
GRID     6               2.5     0.      0.
GRID     7               3.      0.      0.
GRID     8               3.5     0.      0.
GRID     9               4.      0.      0.
GRID     10              4.5     0.      0.
GRID     11              5.      0.      0.
GRID     12              0.      .5      0.
GRID     13              .5      .5      0.
GRID     14              1.      .5      0.
GRID     15              1.5     .5      0.
GRID     16              2.      .5      0.
GRID     17              2.5     .5      0.
GRID     18              3.      .5      0.
GRID     19              3.5     .5      0.
GRID     20              4.      .5      0.
$ ... 35 like lines cut
$
$SPC1     1       12345   1       12      23      34      45

ENDDATA
