ID SEMINAR, PROBLEM A
SOL 103
TIME 600
CEND
SEALL = ALL
SUPER = ALL
TITLE = Normal Modes w/ RBE2
ECHO = NONE
MAXLINES = 999999999
SUBCASE 1
 METHOD = 1
 SPC = 2
BEGIN BULK
CONM2   51      999             500.
$CONM2   51      999             1.295
CORD2C  1               0.      0.      0.      0.      0.      1.      +C
+C      1.      0.      0.
CQUAD4  1       1       1       2       8       7
CQUAD4  2       1       2       3       9       8
CQUAD4  3       1       3       4       10      9
CQUAD4  4       1       4       5       11      10
CQUAD4  5       1       5       6       12      11
CQUAD4  6       1       7       8       14      13
CQUAD4  7       1       8       9       15      14
CQUAD4  8       1       9       10      16      15
CQUAD4  9       1       10      11      17      16
CQUAD4  10      1       11      12      18      17
CQUAD4  11      1       13      14      20      19
CQUAD4  12      1       14      15      21      20
CQUAD4  13      1       15      16      22      21
CQUAD4  14      1       16      17      23      22
CQUAD4  15      1       17      18      24      23
CQUAD4  16      1       19      20      26      25
CQUAD4  17      1       20      21      27      26
CQUAD4  18      1       21      22      28      27
CQUAD4  19      1       22      23      29      28
CQUAD4  20      1       23      24      30      29
$ ... 30 like lines cut
EIGRL   1                       10      0
GRID    1       1       15.     0.      0.      1
GRID    2       1       15.     0.      18.     1
GRID    3       1       15.     0.      36.     1
GRID    4       1       15.     0.      54.     1
GRID    5       1       15.     0.      72.     1
GRID    6       1       15.     0.      90.     1
GRID    7       1       15.     36.     0.      1
GRID    8       1       15.     36.     18.     1
GRID    9       1       15.     36.     36.     1
GRID    10      1       15.     36.     54.     1
GRID    11      1       15.     36.     72.     1
GRID    12      1       15.     36.     90.     1
GRID    13      1       15.     72.     0.      1
GRID    14      1       15.     72.     18.     1
GRID    15      1       15.     72.     36.     1
GRID    16      1       15.     72.     54.     1
GRID    17      1       15.     72.     72.     1
GRID    18      1       15.     72.     90.     1
GRID    19      1       15.     108.    0.      1
GRID    20      1       15.     108.    18.     1
$ ... 41 like lines cut
MAT1    1       1.+7            .3      .101
PARAM   AUTOSPC NO
PARAM   COUPMASS1
PARAM   NOCOMPS -1
PARAM   WTMASS  .00259
PSHELL  1       1       .125    1               1
RBE2    52      999     123456  6       12      18      24      30      +A
+A      36      48      54      60      66
SPC1    1       123456  1       7       13      19      25      31      +B
+B      43      49      55      61
SPCADD  2       1
ENDDATA
