ID SEMINAR,PROB3
TIME 10
SOL 101
CEND
TITLE = STIFFENED PLATE
SUBCASE 1
   SUBTITLE = load_static
   SPC = 1
   LOAD = 1
   DISPLACEMENT=ALL
   SPCFORCES=ALL
   STRESS=ALL
BEGIN BULK
CBAR    21      2       31      32      0.      0.      1.               +000003
++000003                0.      0.      1.05    0.      0.      1.05
CBAR    22      2       32      33      0.      0.      1.               +000005
++000005                0.      0.      1.05    0.      0.      1.05
CBAR    23      2       33      34      0.      0.      1.               +000007
++000007                0.      0.      1.05    0.      0.      1.05
CBAR    24      2       34      35      0.      0.      1.               +000009
++000009                0.      0.      1.05    0.      0.      1.05
CBAR    25      2       35      36      0.      0.      1.               +00000B
++00000B                0.      0.      1.05    0.      0.      1.05
CBAR    26      2       13      14      0.      0.      1.               +00000D
++00000D                0.      0.      1.05    0.      0.      1.05
CBAR    27      2       14      15      0.      0.      1.               +00000F
++00000F                0.      0.      1.05    0.      0.      1.05
CBAR    28      2       15      16      0.      0.      1.               +00000H
++00000H                0.      0.      1.05    0.      0.      1.05
CBAR    29      2       16      17      0.      0.      1.               +00000J
++00000J                0.      0.      1.05    0.      0.      1.05
CBAR    30      2       17      18      0.      0.      1.               +00000L
++00000L                0.      0.      1.05    0.      0.      1.05
CBAR    31      2       1       2       0.      0.      1.               +00000N
++00000N                0.      0.      1.05    0.      0.      1.05
CBAR    32      2       2       3       0.      0.      1.               +00000P
++00000P                0.      0.      1.05    0.      0.      1.05
CBAR    33      2       3       4       0.      0.      1.               +00000R
++00000R                0.      0.      1.05    0.      0.      1.05
CBAR    34      2       4       5       0.      0.      1.               +00000T
++00000T                0.      0.      1.05    0.      0.      1.05
CBAR    35      2       5       6       0.      0.      1.               +00000V
++00000V                0.      0.      1.05    0.      0.      1.05
CQUAD4  1       1       1       2       8       7                               
CQUAD4  2       1       2       3       9       8                               
CQUAD4  3       1       3       4       10      9                               
CQUAD4  4       1       4       5       11      10                              
CQUAD4  5       1       5       6       12      11                              
CQUAD4  6       1       7       8       14      13                              
CQUAD4  7       1       8       9       15      14                              
CQUAD4  8       1       9       10      16      15                              
CQUAD4  9       1       10      11      17      16                              
CQUAD4  10      1       11      12      18      17                              
CQUAD4  11      1       13      14      26      25                              
CQUAD4  12      1       14      15      27      26                              
CQUAD4  13      1       15      16      28      27                              
CQUAD4  14      1       16      17      29      28                              
CQUAD4  15      1       17      18      30      29                              
CQUAD4  16      1       25      26      32      31                              
CQUAD4  17      1       26      27      33      32                              
CQUAD4  18      1       27      28      34      33                              
CQUAD4  19      1       28      29      35      34                              
CQUAD4  20      1       29      30      36      35                              
GRID    1               0.      0.      0.                                      
GRID    2               4.      0.      0.                                      
GRID    3               8.      0.      0.                                      
GRID    4               12.     0.      0.                                      
GRID    5               16.     0.      0.                                      
GRID    6               20.     0.      0.                                      
GRID    7               0.      2.5     0.                                      
GRID    8               4.      2.5     0.                                      
GRID    9               8.      2.5     0.                                      
GRID    10              12.     2.5     0.                                      
GRID    11              16.     2.5     0.                                      
GRID    12              20.     2.5     0.                                      
GRID    13              0.      5.      0.                                      
GRID    14              4.      5.      0.                                      
GRID    15              8.      5.      0.                                      
GRID    16              12.     5.      0.                                      
GRID    17              16.     5.      0.                                      
GRID    18              20.     5.      0.                                      
GRID    25              0.      7.5     0.                                      
GRID    26              4.      7.5     0.                                      
$ ... 10 like lines cut
MAT1    1       1.03+7          .3      .101                                    
PBAR    2       1       .38     .2293   .0168   .0013                    +000001
++0000011.      -.5     1.      .5      -1.     .5      -1.     -.5
PLOAD4  1       1       -.5                             THRU    20              
PSHELL  1       1       .1      1               1                               
SPC1    1       123     1       6       31      36                              
ENDDATA
