$
$ FILENAME - RBAR1.DAT
$
ID LINEAR,RBAR1
SOL 101
TIME 2
CEND
TITLE = CONNECTING 2 RBARS
DISPLACEMENT = ALL
SUBCASE 1
  LOAD = 1
SUBCASE 2
  LOAD = 2
BEGIN BULK
$
GRID    1               0.      0.      0.             
GRID    2               10.     0.      0.
GRID    3               20.     0.      0.
GRID    4               30.     0.      0.
GRID    5               30.     0.      0.              123456
$
$  OPTION 1
$
RBAR    1       1       2       123456
RBAR    2       2       3       123456
RBAR    4       4       5       123456
$
$  OPTION 2
$
$RBAR    1       1       2               123456
$RBAR    2       2       3               123456
$
CBAR    3       1       3       4       0.      1.      0.
PBAR    1       1       1.      1.      1.      1.
MAT1    1       20.4            .3
$
$ POINT LOAD
$
FORCE   1       1               1.       1.      0.      0.
FORCE   2       1               1.       0.      1.      0.
$
ENDDATA 
