ID SEMINAR, APPENDIX B
SOL 103
TIME 600
CEND
TITLE = Normal Modes w/ RBE3
ECHO = PUNCH
MAXLINES = 999999999
SUBCASE 1
 METHOD = 1
 SPC = 1
BEGIN BULK
CONM2   51      999             500.                                            
CORD2C  1               0.      0.      0.      0.      0.      1.      +C      
+C      1.      0.      0.                                                      
CQUAD4  1       1       1       11      12      2                               
CQUAD4  2       1       2       12      13      3                               
CQUAD4  3       1       3       13      14      4                               
CQUAD4  4       1       4       14      15      5                               
CQUAD4  5       1       5       15      16      6                               
CQUAD4  6       1       6       16      17      7                               
CQUAD4  7       1       7       17      18      8                               
CQUAD4  8       1       8       18      19      9                               
CQUAD4  9       1       9       19      20      10                              
CQUAD4  10      1       10      20      11      1                               
CQUAD4  11      1       11      21      22      12                              
CQUAD4  12      1       12      22      23      13                              
CQUAD4  13      1       13      23      24      14                              
CQUAD4  14      1       14      24      25      15                              
CQUAD4  15      1       15      25      26      16                              
CQUAD4  16      1       16      26      27      17                              
CQUAD4  17      1       17      27      28      18                              
CQUAD4  18      1       18      28      29      19                              
CQUAD4  19      1       19      29      30      20                              
CQUAD4  20      1       20      30      21      11                              
$ ... 30 like lines cut
EIGRL   1                       10      0                                       
GRID    1       1       15.     0.      0.      1                               
GRID    2       1       15.     36.     0.      1                               
GRID    3       1       15.     72.     0.      1                               
GRID    4       1       15.     108.    0.      1                               
GRID    5       1       15.     144.    0.      1                               
GRID    6       1       15.     180.    0.      1                               
GRID    7       1       15.     216.    0.      1                               
GRID    8       1       15.     252.    0.      1                               
GRID    9       1       15.     288.    0.      1                               
GRID    10      1       15.     324.    0.      1                               
GRID    11      1       15.     0.      18.     1                               
GRID    12      1       15.     36.     18.     1                               
GRID    13      1       15.     72.     18.     1                               
GRID    14      1       15.     108.    18.     1                               
GRID    15      1       15.     144.    18.     1                               
GRID    16      1       15.     180.    18.     1                               
GRID    17      1       15.     216.    18.     1                               
GRID    18      1       15.     252.    18.     1                               
GRID    19      1       15.     288.    18.     1                               
GRID    20      1       15.     324.    18.     1                               
$ ... 41 like lines cut
MAT1    1       1.+7            .3      .101                                    
PARAM   COUPMASS1                                                               
PARAM   WTMASS  .00259                                                          
PSHELL  1       1       .125    1                                               
RBE3    52              999     123     1.      123     51      52       +000001
++00000153      54      55      56      57      58      59      60       +000002
SPC1    1       123456  1       2       3       4       5       6        +000003
++0000037       8       9       10                                       
ENDDATA
